#=======================================================================
data_global
#=======================================================================

loop_
 _audit_conform_dict_name
 _audit_conform_dict_version
 _audit_conform_dict_location
 cif_core.dic  2.4.5  ftp://ftp.iucr.org/pub/cif_core.dic
 cif_pd.dic    1.0.1  ftp://ftp.iucr.org/pub/cif_pd.dic

_audit_creation_method              'Jana2006 Version : 09/03/2019'

_audit_contact_author_name          'Wiedemann, Dennis'
_audit_contact_author_address
;
Institut f\"ur Chemie
Technische Universit\"at Berlin
Stra\&se des 17. Juni 135
10623 Berlin
GERMANY
;
_audit_contact_author_email         dennis.wiedemann@chem.tu-berlin.de
_audit_contact_author_fax           '49(30)31479656'
_audit_contact_author_phone         '49(30)31426178'

#=======================================================================

_publ_section_references
;
Bergerhoff, G. & Brown, I.D. (1987). Crystallographic Databases, edited by
 Allen, F.H., Bergerhoff, G. & Sievers, R., pp. 77-95. Chester, U.K.:
 International Union of Crystallography.

Brandenburg, K. (2018). Diamond. Version 4.5. Crystal Impact -- H. Putz & K.
 Brandenburg GbR, Bonn, Germany.

Hewat, A.W. (1986). Mater. Sci. Forum 9, 69-80.

Howard, C.J. (1982). J. Appl. Cryst. 15, 615-620.

Pet\<r\'i\<cek, V., Du\<sek, M. & Palatinus, L. (2014). Z. Kristallogr. 229,
 345-352.

Richard, D., Ferrand, M. & Kearley, G.J. (1996). J. Neutron Res. 4, 33-39.

Suard, E. & Hewat, A. (2001). Neutron News 12, 30-33.

Thompson, P., Cox, D.E. & Hastings, J.B. (1987). J. Appl. Cryst. 20, 79-83.
;

#=======================================================================
data_3R1-700C
#=======================================================================

# CHEMICAL DATA

loop_
 _audit_conform_dict_name
 _audit_conform_dict_version
 _audit_conform_dict_location
 cif_core.dic  2.4.5  ftp://ftp.iucr.org/pub/cif_core.dic
 cif_pd.dic    1.0.1  ftp://ftp.iucr.org/pub/cif_pd.dic

_chemical_name_systematic
;
sodium titanium disulfide (sodium deficient)
;
_chemical_formula_structural        'Na0.5 (Ti S2)'
_chemical_formula_iupac             'Na0.5 Ti S2 (hR10.5)'
_chemical_formula_sum               'Na0.5 S2 Ti'
_chemical_formula_weight            123.5
_chemical_absolute_configuration    .

#=======================================================================

# POWDER SPECIMEN AND CRYSTAL DATA

_symmetry_cell_setting              trigonal
_symmetry_space_group_name_H-M      'R -3 m'
_symmetry_space_group_name_Hall     '-R 3 2"'
_symmetry_Int_Tables_number         166

loop_
 _space_group_symop_id
 _space_group_symop_operation_xyz
 1   x,y,z
 2   -y,x-y,z
 3   -x+y,-x,z
 4   y,x,-z
 5   x-y,-y,-z
 6   -x,-x+y,-z
 7   -x,-y,-z
 8   y,-x+y,-z
 9   x-y,x,-z
 10  -y,-x,z
 11  -x+y,y,z
 12  x,x-y,z
 13  x+2/3,y+1/3,z+1/3
 14  -y+2/3,x-y+1/3,z+1/3
 15  -x+y+2/3,-x+1/3,z+1/3
 16  y+2/3,x+1/3,-z+1/3
 17  x-y+2/3,-y+1/3,-z+1/3
 18  -x+2/3,-x+y+1/3,-z+1/3
 19  -x+2/3,-y+1/3,-z+1/3
 20  y+2/3,-x+y+1/3,-z+1/3
 21  x-y+2/3,x+1/3,-z+1/3
 22  -y+2/3,-x+1/3,z+1/3
 23  -x+y+2/3,y+1/3,z+1/3
 24  x+2/3,x-y+1/3,z+1/3
 25  x+1/3,y+2/3,z+2/3
 26  -y+1/3,x-y+2/3,z+2/3
 27  -x+y+1/3,-x+2/3,z+2/3
 28  y+1/3,x+2/3,-z+2/3
 29  x-y+1/3,-y+2/3,-z+2/3
 30  -x+1/3,-x+y+2/3,-z+2/3
 31  -x+1/3,-y+2/3,-z+2/3
 32  y+1/3,-x+y+2/3,-z+2/3
 33  x-y+1/3,x+2/3,-z+2/3
 34  -y+1/3,-x+2/3,z+2/3
 35  -x+y+1/3,y+2/3,z+2/3
 36  x+1/3,x-y+2/3,z+2/3

_cell_length_a                      3.48717(7)
_cell_length_b                      3.48717(7)
_cell_length_c                      21.3635(8)
_cell_angle_alpha                   90
_cell_angle_beta                    90
_cell_angle_gamma                   120
_cell_volume                        224.983(14)
_cell_formula_units_Z               3
_cell_measurement_temperature       973.15
                                    
_exptl_crystal_density_diffrn       2.7345
_exptl_crystal_density_meas         ?
_exptl_crystal_density_method       'not measured'
_exptl_crystal_F_000                37.799
                                    
_pd_spec_size_axial                 49.8
_pd_spec_size_equat                 13.9
_pd_spec_mounting                   'compacted powder in a vanadium can'
_pd_spec_mount_mode                 transmission
_pd_spec_shape                      cylinder
_pd_spec_orientation                horizontal
_pd_spec_preparation                'grinding in an agate mortar'
_pd_char_particle_morphology        plate-like
_pd_char_colour                     grey-black
                                    
_exptl_absorpt_coefficient_mu       0.009
_pd_char_atten_coef_mu_calc         0.0082
_exptl_absorpt_correction_type      cylinder
_exptl_absorpt_process_details      
;
correction for a cylindrical sample with \mR = 0.041 as implemented in
 JANA2006 (Pet\<r\'i\<cek et al., 2014)
;

#=======================================================================

# EXPERIMENTAL DATA

_pd_instr_location
;
D2B, Institut Laue-Langevin (Grenoble, France)
;
_pd_instr_geometry                  Debye-Scherrer
_pd_instr_beam_size_ax              50
_pd_instr_beam_size_eq              20
_pd_instr_monochr_pre_spec          'Ge 335'
_pd_instr_slit_ax_mono/spec         2985
_pd_instr_slit_eq_mono/spec         500
_pd_instr_soller_eq_src/mono        0.166667
_pd_instr_soller_eq_spec/detc       0.083333

_diffrn_ambient_temperature         973.15
_diffrn_ambient_environment         vacuum
_diffrn_source                      'nuclear reactor'
_diffrn_source_type                 'ILL beam tube H11'
_diffrn_radiation_type              neutron
_diffrn_radiation_wavelength        1.594
_diffrn_radiation_monochromator     'Ge 335'
_diffrn_measurement_device          'two-axis diffractometer'
_diffrn_measurement_device_type     D2B
_diffrn_measurement_method          'profile data from 2\q scans'
_diffrn_measurement_device_details  'Hewat (1986), Suard & Hewat (2001)'
_diffrn_detector                    '^3^He counter'
_diffrn_detector_details            'array of 128 counters'

_pd_meas_scan_method                step
_pd_meas_number_of_points           3199
_pd_meas_2theta_range_min           0.050
_pd_meas_2theta_range_max           159.950
_pd_meas_2theta_range_inc           0.05

_diffrn_radiation_probe             neutron

#=======================================================================

# REFINEMENT DATA

_pd_proc_ls_special_details
;
zero-point correction: 
;
_pd_proc_ls_profile_function
;
pseudo-Voigt profile in TCH approach (Thompson et al., 1987):
 G~U~ = , G~V~ = , G~W~ = , L~X~ = , L~Y~ = 0;
 asymmetry correction according to Howard (1982):
 P = 
;
_pd_proc_ls_background_function
;
manual background (visual estimation, unrefined) interpolated by ten Legendre
 polynomials (1st: , 2nd: , 3rd: , 4th: , 5th: )
;
_pd_proc_ls_pref_orient_corr        none
_pd_proc_ls_prof_R_factor           0.0177
_pd_proc_ls_prof_wR_factor          0.0230
_pd_proc_ls_prof_wR_expected        0.0175

_atom_sites_solution_primary        other
_atom_sites_solution_secondary      .
_atom_sites_solution_hydrogens      .
_atom_sites_special_details
;
Instead of an ab-initio structure solution, a known model of
 Na~0.55~TiS~2~-3R~1~ was imported from the Inorganic Crystal Structure
 Database (ICSD; Bergerhoff & Brown, 1987) and adjusted to reflect the
 approximate cell parameters and actual contents. 
;
_refine_special_details
;
Relatively weak reflections of a by-phase assuming the space-group type Fm\=3m
 (probably steel from the sample environment) were treated with an appropriate
 Le-Bail fit (separate profile parameters).
;
_reflns_threshold_expression        I>3\s(I)
_refine_ls_structure_factor_coef    Inet
_refine_ls_matrix_type              full
_refine_ls_R_factor_gt              0.0324
_refine_ls_wR_factor_gt             0.0340
_refine_ls_R_factor_all             0.0414
_refine_ls_wR_factor_all            0.0347
_refine_ls_R_I_factor               ?
_refine_ls_goodness_of_fit_all      1.31
_refine_ls_number_parameters        28
_refine_ls_number_restraints        0
_refine_ls_number_constraints       1
_refine_ls_weighting_scheme         sigma
_refine_ls_weighting_details        'w=1/[\s^2^(F~o~)+(0.01F~o~)^2^]'
_refine_ls_hydrogen_treatment       .
_refine_ls_shift/su_max             0.0055
_refine_ls_shift/su_mean            0.0013
_refine_diff_density_max            0.13
_refine_diff_density_min            -0.17
_refine_ls_extinction_method        none

_pd_proc_2theta_range_min           7.55
_pd_proc_2theta_range_max           157.95
_pd_proc_2theta_range_inc           0.05
_pd_proc_wavelength                 1.594

loop_
_pd_proc_info_excluded_regions
 'from 0.05 to 7.50: irregular onset'
 'from 158.0 to 160.11: cut-off refelection'

loop_
 _atom_type_symbol
 _atom_type_scat_length_neutron
 _atom_type_scat_source
 Na    3.630 International_Tables_Vol_C
 S     2.847 International_Tables_Vol_C
 Ti   -3.438 International_Tables_Vol_C

_computing_data_collection          'NOMAD 3.0.16'
_computing_cell_refinement          'JANA2006 (Pet\<r\'i\<cek et al., 2014)'
_computing_data_reduction           'Lamp 8.5 (Richard et al., 1996)'
_computing_structure_solution       'ICSD (Bergerhoff & Brown, 1987)'
_computing_structure_refinement     'JANA2006 (Pet\<r\'i\<cek et al., 2014)'
_computing_molecular_graphics       'Diamond 4.5 (Brandenburg, 2018)'
_computing_publication_material     'JANA2006 (Pet\<r\'i\<cek et al., 2014)'

#=======================================================================

# ATOMIC COORDINATES AND DISPLACEMENT PARAMETERS

loop_
 _atom_site_label
 _atom_site_type_symbol
 _atom_site_fract_x
 _atom_site_fract_y
 _atom_site_fract_z
 _atom_site_adp_type
 _atom_site_U_iso_or_equiv
 _atom_site_site_symmetry_multiplicity
 _atom_site_Wyckoff_symbol
 _atom_site_occupancy
 _atom_site_calc_flag
 _atom_site_refinement_flags
 _atom_site_disorder_assembly
 _atom_site_disorder_group
  Ti1 Ti 0 0 0 Uani 0.0351(12) 3 a 1 d . . .
  Na1 Na 0 0 0.166667 Uani 0.153(5) 6 c 0.25 d . . .
  S1 S 0 0 0.39894(10) Uani 0.0308(9) 6 c 1 d . . .

loop_
 _atom_site_aniso_label
 _atom_site_aniso_type_symbol
 _atom_site_aniso_U_11
 _atom_site_aniso_U_22
 _atom_site_aniso_U_33
 _atom_site_aniso_U_12
 _atom_site_aniso_U_13
 _atom_site_aniso_U_23
 Ti1 Ti 0.0261(11) 0.0261(11) 0.053(3) 0.0130(5) 0 0
 Na1 Na 0.199(7) 0.199(7) 0.060(6) 0.100(4) 0 0
 S1 S 0.0303(9) 0.0303(9) 0.0318(18) 0.0152(5) 0 0

loop_
 _jana_atom_site_ADP_C_label
 _jana_atom_site_ADP_C_type_symbol
 _jana_atom_site_ADP_C_111
 _jana_atom_site_ADP_C_112
 _jana_atom_site_ADP_C_113
 _jana_atom_site_ADP_C_122
 _jana_atom_site_ADP_C_123
 _jana_atom_site_ADP_C_133
 _jana_atom_site_ADP_C_222
 _jana_atom_site_ADP_C_223
 _jana_atom_site_ADP_C_233
 _jana_atom_site_ADP_C_333
 Na1 Na 1.4(3) 0.69(13) 0 -0.69(13) 0 0 -1.4(3) 0 0 0.0008(5)

#=======================================================================

# MOLECULAR GEOMETRY

loop_
 _geom_bond_atom_site_label_1
 _geom_bond_atom_site_label_2
 _geom_bond_site_symmetry_1
 _geom_bond_site_symmetry_2
 _geom_bond_distance
 _geom_bond_publ_flag
  Ti1 S1 . 25_444 2.4531(12) ?
  Ti1 S1 . 25_544 2.4531(12) ?
  Ti1 S1 . 25_554 2.4531(12) ?
  Ti1 S1 . 16_445 2.4531(12) ?
  Ti1 S1 . 16_455 2.4531(12) ?
  Ti1 S1 . 16_555 2.4531(12) ?
  Na1 S1 . 25_444 2.9521(16) ?
  Na1 S1 . 25_544 2.9521(16) ?
  Na1 S1 . 25_554 2.9521(16) ?
  Na1 S1 . 28_445 2.9521(16) ?
  Na1 S1 . 28_545 2.9521(16) ?
  Na1 S1 . 28_555 2.9521(16) ?

loop_
 _geom_angle_atom_site_label_1
 _geom_angle_atom_site_label_2
 _geom_angle_atom_site_label_3
 _geom_angle_site_symmetry_1
 _geom_angle_site_symmetry_2
 _geom_angle_site_symmetry_3
 _geom_angle
 _geom_angle_publ_flag
  S1 Ti1 S1 25_444 . 25_544 90.59(4) ?
  S1 Ti1 S1 25_444 . 25_554 90.59(4) ?
  S1 Ti1 S1 25_444 . 16_445 89.41(4) ?
  S1 Ti1 S1 25_444 . 16_455 89.41(4) ?
  S1 Ti1 S1 25_444 . 16_555 180 ?
  S1 Ti1 S1 25_544 . 25_554 90.59(4) ?
  S1 Ti1 S1 25_544 . 16_445 89.41(4) ?
  S1 Ti1 S1 25_544 . 16_455 180 ?
  S1 Ti1 S1 25_544 . 16_555 89.41(4) ?
  S1 Ti1 S1 25_554 . 16_445 180 ?
  S1 Ti1 S1 25_554 . 16_455 89.41(4) ?
  S1 Ti1 S1 25_554 . 16_555 89.41(4) ?
  S1 Ti1 S1 16_445 . 16_455 90.59(4) ?
  S1 Ti1 S1 16_445 . 16_555 90.59(4) ?
  S1 Ti1 S1 16_455 . 16_555 90.59(4) ?
  S1 Na1 S1 25_444 . 25_544 72.40(3) ?
  S1 Na1 S1 25_444 . 25_554 72.40(3) ?
  S1 Na1 S1 25_444 . 28_445 94.00(4) ?
  S1 Na1 S1 25_444 . 28_545 140.125(16) ?
  S1 Na1 S1 25_444 . 28_555 140.125(16) ?
  S1 Na1 S1 25_544 . 25_554 72.40(3) ?
  S1 Na1 S1 25_544 . 28_445 140.125(16) ?
  S1 Na1 S1 25_544 . 28_545 94.00(4) ?
  S1 Na1 S1 25_544 . 28_555 140.125(16) ?
  S1 Na1 S1 25_554 . 28_445 140.125(16) ?
  S1 Na1 S1 25_554 . 28_545 140.125(16) ?
  S1 Na1 S1 25_554 . 28_555 94.00(4) ?
  S1 Na1 S1 28_445 . 28_545 72.40(3) ?
  S1 Na1 S1 28_445 . 28_555 72.40(3) ?
  S1 Na1 S1 28_545 . 28_555 72.40(3) ?

#=======================================================================

# POWDER PROFILE

loop_
 _pd_proc_point_id
 _pd_proc_2theta_corrected
 _pd_proc_d_spacing
 _pd_proc_intensity_net
 _pd_calc_intensity_net
 _pd_proc_ls_weight
         1    7.4300 12.300606    517.99    513.43      7.43
         2    7.4800 12.218497    509.58    511.63      7.37
         3    7.5300 12.137481    503.05    509.83      7.30
         4    7.5800 12.057534    512.56    508.03      7.38
         5    7.6300 11.978636    513.34    506.23      7.36
         6    7.6800 11.900765    512.94    504.43      7.37
         7    7.7300 11.823903    511.04    502.63      7.35
         8    7.7800 11.748030    499.73    500.82      7.24
         9    7.8300 11.673126    505.29    499.02      7.29
        10    7.8800 11.599174    501.25    497.22      7.29
        11    7.9300 11.526155    506.56    495.42      7.26
        12    7.9800 11.454051    514.09    493.61      7.31
        13    8.0300 11.382848    491.17    491.81      7.14
        14    8.0800 11.312525    487.96    490.01      7.13
        15    8.1300 11.243067    497.70    488.20      7.18
        16    8.1800 11.174459    488.86    486.40      7.11
        17    8.2300 11.106688    489.00    484.60      7.15
        18    8.2800 11.039733    473.05    482.80      7.00
        19    8.3300 10.973584    468.57    480.99      6.97
        20    8.3800 10.908225    472.65    479.35      6.99
        21    8.4300 10.843641    479.23    477.96      7.01
        22    8.4800 10.779822    481.93    476.57      7.05
        23    8.5300 10.716749    478.13    475.18      6.99
        24    8.5800 10.654412    473.73    473.79      7.02
        25    8.6300 10.592800    464.60    472.40      6.92
        26    8.6800 10.531897    469.52    471.01      6.95
        27    8.7300 10.471693    471.58    469.62      6.98
        28    8.7800 10.412175    461.93    468.23      6.87
        29    8.8300 10.353332    461.19    466.84      6.89
        30    8.8800 10.295151    456.55    465.45      6.86
        31    8.9300 10.237623    461.05    464.06      6.87
        32    8.9800 10.180737    462.12    462.67      6.91
        33    9.0300 10.124481    458.62    461.28      6.84
        34    9.0800 10.068845    457.03    459.89      6.84
        35    9.1300 10.013819    456.29    458.50      6.82
        36    9.1800  9.959393    447.81    457.11      6.75
        37    9.2300  9.905559    453.42    455.72      6.80
        38    9.2800  9.852304    446.01    454.33      6.76
        39    9.3300  9.799621    453.29    452.97      6.79
        40    9.3800  9.747499    448.14    451.71      6.77
        41    9.4300  9.695931    449.41    450.45      6.80
        42    9.4800  9.644909    443.92    449.19      6.75
        43    9.5300  9.594421    444.33    447.93      6.72
        44    9.5800  9.544462    449.32    446.68      6.76
        45    9.6300  9.495022    437.54    445.42      6.71
        46    9.6800  9.446093    440.83    444.17      6.71
        47    9.7300  9.397669    438.25    442.91      6.68
        48    9.7800  9.349738    440.79    441.65      6.68
        49    9.8300  9.302298    448.76    440.40      6.74
        50    9.8800  9.255336    437.47    439.15      6.67
        51    9.9300  9.208849    440.10    437.90      6.69
        52    9.9800  9.162828    439.95    436.65      6.69
        53   10.0300  9.117268    437.09    435.40      6.67
        54   10.0800  9.072159    444.79    434.15      6.71
        55   10.1300  9.027495    433.89    432.91      6.64
        56   10.1800  8.983272    432.45    431.76      6.62
        57   10.2300  8.939482    433.40    430.75      6.64
        58   10.2800  8.896118    425.37    429.74      6.60
        59   10.3300  8.853174    420.75    428.73      6.53
        60   10.3800  8.810644    418.37    427.73      6.51
        61   10.4300  8.768523    425.53    426.73      6.57
        62   10.4800  8.726805    427.77    425.73      6.58
        63   10.5300  8.685483    422.17    424.74      6.57
        64   10.5800  8.644551    413.90    423.75      6.48
        65   10.6300  8.604006    426.12    422.76      6.58
        66   10.6800  8.563841    425.65    421.78      6.58
        67   10.7300  8.524052    415.85    420.81      6.54
        68   10.7800  8.484631    423.72    419.84      6.59
        69   10.8300  8.445575    416.95    418.88      6.50
        70   10.8800  8.406878    422.80    417.92      6.54
        71   10.9300  8.368536    422.43    416.98      6.53
        72   10.9800  8.330544    420.44    416.04      6.51
        73   11.0300  8.292897    409.47    415.12      6.45
        74   11.0800  8.255590    418.14    414.21      6.52
        75   11.1300  8.218618    417.80    413.31      6.49
        76   11.1800  8.181978    405.42    412.44      6.40
        77   11.2300  8.145666    394.23    411.64      6.38
        78   11.2800  8.109675    407.32    411.08      6.45
        79   11.3300  8.074002    405.41    410.55      6.40
        80   11.3800  8.038644    410.74    410.08      6.44
        81   11.4300  8.003595    421.53    409.67      6.53
        82   11.4800  7.968852    414.75    409.36      6.47
        83   11.5300  7.934412    416.86    409.21      6.51
        84   11.5800  7.900268    408.55    409.29      6.44
        85   11.6300  7.866419    412.27    409.72      6.47
        86   11.6800  7.832860    421.94    410.65      6.54
        87   11.7300  7.799588    431.13    412.28      6.61
        88   11.7800  7.766599    431.13    414.83      6.62
        89   11.8300  7.733889    427.96    418.56      6.60
        90   11.8800  7.701454    417.58    423.71      6.50
        91   11.9300  7.669292    433.11    430.47      6.61
        92   11.9800  7.637400    433.88    438.95      6.62
        93   12.0300  7.605773    436.73    449.09      6.65
        94   12.0800  7.574408    440.92    460.66      6.67
        95   12.1300  7.543302    438.64    473.36      6.65
        96   12.1800  7.512452    459.28    486.86      6.82
        97   12.2300  7.481855    472.32    500.71      6.93
        98   12.2800  7.451508    484.05    514.28      6.99
        99   12.3300  7.421406    479.41    527.00      6.99
       100   12.3800  7.391549    483.84    538.80      7.04
       101   12.4300  7.361932    497.90    550.14      7.11
       102   12.4800  7.332553    522.48    561.47      7.24
       103   12.5300  7.303410    544.21    572.70      7.39
       104   12.5800  7.274498    558.70    583.05      7.48
       105   12.6300  7.245815    560.20    591.16      7.49
       106   12.6800  7.217360    569.81    595.29      7.55
       107   12.7300  7.189128    571.44    593.80      7.56
       108   12.7800  7.161117    588.68    585.59      7.69
       109   12.8300  7.133326    580.48    570.34      7.64
       110   12.8800  7.105750    557.72    548.97      7.50
       111   12.9300  7.078388    554.63    523.62      7.48
       112   12.9800  7.051238    529.15    497.01      7.29
       113   13.0300  7.024296    507.50    471.56      7.14
       114   13.0800  6.997561    489.90    448.97      7.02
       115   13.1300  6.971029    477.08    430.13      6.95
       116   13.1800  6.944700    454.21    415.26      6.86
       117   13.2300  6.918571    437.48    404.05      6.65
       118   13.2800  6.892637    434.61    395.90      6.69
       119   13.3300  6.866900    421.05    390.13      6.53
       120   13.3800  6.841354    411.27    386.04      6.47
       121   13.4300  6.816000    409.73    383.10      6.47
       122   13.4800  6.790834    410.11    380.88      6.47
       123   13.5300  6.765855    400.17    379.11      6.42
       124   13.5800  6.741060    389.12    377.62      6.28
       125   13.6300  6.716447    382.01    376.29      6.25
       126   13.6800  6.692015    383.58    375.06      6.26
       127   13.7300  6.667761    374.33    373.91      6.18
       128   13.7800  6.643684    373.64    372.81      6.15
       129   13.8300  6.619781    383.19    371.76      6.21
       130   13.8800  6.596050    378.95    370.73      6.18
       131   13.9300  6.572491    371.41    369.74      6.11
       132   13.9800  6.549100    367.77    368.77      6.09
       133   14.0300  6.525877    369.51    367.82      6.14
       134   14.0800  6.502819    370.56    366.89      6.13
       135   14.1300  6.479924    365.24    365.97      6.08
       136   14.1800  6.457191    366.85    365.07      6.09
       137   14.2300  6.434619    363.61    364.18      6.05
       138   14.2800  6.412205    360.80    363.30      6.03
       139   14.3300  6.389947    359.21    362.42      6.05
       140   14.3800  6.367846    362.26    361.56      6.05
       141   14.4300  6.345897    360.70    360.70      6.03
       142   14.4800  6.324100    356.69    359.85      5.99
       143   14.5300  6.302454    356.93    359.01      6.00
       144   14.5800  6.280957    352.63    358.45      6.01
       145   14.6300  6.259607    355.67    357.96      6.04
       146   14.6800  6.238403    357.21    357.48      6.02
       147   14.7300  6.217344    353.90    357.00      5.97
       148   14.7800  6.196427    357.45    356.53      6.02
       149   14.8300  6.175652    353.25    356.06      5.99
       150   14.8800  6.155016    353.18    355.59      5.99
       151   14.9300  6.134520    355.06    355.13      6.07
       152   14.9800  6.114160    350.65    354.67      6.01
       153   15.0300  6.093936    356.05    354.21      5.99
       154   15.0800  6.073847    367.26    353.75      6.08
       155   15.1300  6.053891    365.11    353.29      6.06
       156   15.1800  6.034067    353.54    352.84      5.97
       157   15.2300  6.014374    359.37    352.38      6.02
       158   15.2800  5.994809    364.55    351.93      6.06
       159   15.3300  5.975373    352.89    351.48      5.98
       160   15.3800  5.956063    348.61    351.03      5.99
       161   15.4300  5.936879    350.56    350.59      5.98
       162   15.4800  5.917819    353.00    350.14      6.03
       163   15.5300  5.898882    347.30    349.70      5.93
       164   15.5800  5.880068    346.08    349.25      5.95
       165   15.6300  5.861374    350.68    348.81      5.99
       166   15.6800  5.842800    343.05    348.36      5.89
       167   15.7300  5.824344    342.51    347.92      5.88
       168   15.7800  5.806005    338.53    347.48      5.95
       169   15.8300  5.787783    345.91    347.04      5.93
       170   15.8800  5.769676    348.00    346.60      5.93
       171   15.9300  5.751682    348.24    346.16      5.91
       172   15.9800  5.733802    337.56    345.73      5.83
       173   16.0300  5.716033    349.01    345.29      5.94
       174   16.0800  5.698376    346.70    344.85      5.92
       175   16.1300  5.680829    342.61    344.41      5.87
       176   16.1800  5.663390    337.30    343.98      5.87
       177   16.2300  5.646059    333.31    343.54      5.83
       178   16.2800  5.628834    340.70    343.15      5.90
       179   16.3300  5.611717    346.81    342.71      5.91
       180   16.3800  5.594703    339.95    342.28      5.88
       181   16.4300  5.577793    336.29    341.85      5.84
       182   16.4800  5.560987    328.35    341.41      5.76
       183   16.5300  5.544282    327.58    340.98      5.80
       184   16.5800  5.527678    329.89    340.55      5.80
       185   16.6300  5.511175    338.44    340.11      5.86
       186   16.6800  5.494771    339.92    339.68      5.91
       187   16.7300  5.478466    342.47    339.25      5.87
       188   16.7800  5.462257    342.81    338.82      5.87
       189   16.8300  5.446146    338.82    338.39      5.87
       190   16.8800  5.430131    337.28    337.96      5.90
       191   16.9300  5.414210    331.63    337.53      5.86
       192   16.9800  5.398384    329.47    337.10      5.81
       193   17.0300  5.382649    337.38    336.67      5.86
       194   17.0800  5.367009    338.40    336.24      5.90
       195   17.1300  5.351460    343.72    335.81      5.90
       196   17.1800  5.336001    343.88    335.38      5.91
       197   17.2300  5.320633    343.09    335.10      5.88
       198   17.2800  5.305354    345.31    334.81      5.89
       199   17.3300  5.290164    336.25    334.52      5.85
       200   17.3800  5.275062    322.59    334.24      5.75
       201   17.4300  5.260046    334.34    333.95      5.80
       202   17.4800  5.245116    333.25    333.67      5.81
       203   17.5300  5.230272    328.61    333.38      5.75
       204   17.5800  5.215512    334.56    333.10      5.81
       205   17.6300  5.200838    332.57    332.81      5.79
       206   17.6800  5.186245    334.70    332.53      5.80
       207   17.7300  5.171737    328.80    332.24      5.79
       208   17.7800  5.157309    333.43    331.96      5.80
       209   17.8300  5.142963    329.98    331.68      5.79
       210   17.8800  5.128698    337.39    331.39      5.83
       211   17.9300  5.114512    331.06    331.11      5.82
       212   17.9800  5.100406    326.24    330.83      5.84
       213   18.0300  5.086378    334.21    330.54      5.85
       214   18.0800  5.072428    333.79    330.26      5.80
       215   18.1300  5.058556    326.02    329.98      5.74
       216   18.1800  5.044759    338.14    329.70      5.83
       217   18.2300  5.031040    335.88    329.41      5.82
       218   18.2800  5.017395    336.70    329.13      5.83
       219   18.3300  5.003825    328.27    328.85      5.76
       220   18.3800  4.990330    330.37    328.57      5.76
       221   18.4300  4.976907    328.63    328.28      5.82
       222   18.4800  4.963558    328.74    328.00      5.78
       223   18.5300  4.950281    326.67    327.72      5.75
       224   18.5800  4.937076    330.84    327.44      5.83
       225   18.6300  4.923943    325.99    327.16      5.80
       226   18.6800  4.910879    323.44    326.88      5.71
       227   18.7300  4.897886    329.17    326.60      5.81
       228   18.7800  4.884962    330.76    326.32      5.79
       229   18.8300  4.872108    341.25    326.04      5.87
       230   18.8800  4.859322    335.08    325.75      5.82
       231   18.9300  4.846602    332.73    325.47      5.80
       232   18.9800  4.833951    326.33    325.19      5.74
       233   19.0300  4.821367    319.61    324.91      5.69
       234   19.0800  4.808849    314.01    324.63      5.72
       235   19.1300  4.796397    326.05    324.35      5.73
       236   19.1800  4.784009    322.41    324.08      5.73
       237   19.2300  4.771688    316.39    323.80      5.68
       238   19.2800  4.759429    327.16    323.52      5.76
       239   19.3300  4.747235    313.41    323.28      5.67
       240   19.3800  4.735104    323.84    323.10      5.71
       241   19.4300  4.723035    323.95    322.92      5.72
       242   19.4800  4.711029    321.78    322.74      5.75
       243   19.5300  4.699084    323.18    322.56      5.72
       244   19.5800  4.687201    318.24    322.38      5.69
       245   19.6300  4.675379    326.02    322.20      5.72
       246   19.6800  4.663617    327.86    322.03      5.75
       247   19.7300  4.651915    325.01    321.85      5.75
       248   19.7800  4.640272    326.32    321.67      5.72
       249   19.8300  4.628688    319.75    321.49      5.68
       250   19.8800  4.617164    319.82    321.31      5.66
       251   19.9300  4.605697    316.45    321.14      5.67
       252   19.9800  4.594288    315.98    320.96      5.67
       253   20.0300  4.582936    310.33    320.78      5.59
       254   20.0800  4.571640    326.95    320.61      5.74
       255   20.1300  4.560402    335.18    320.43      5.80
       256   20.1800  4.549220    320.70    320.25      5.69
       257   20.2300  4.538092    321.20    320.08      5.72
       258   20.2800  4.527020    322.55    319.90      5.71
       259   20.3300  4.516003    320.97    319.72      5.74
       260   20.3800  4.505041    325.04    319.55      5.74
       261   20.4300  4.494131    318.68    319.37      5.70
       262   20.4800  4.483276    316.59    319.20      5.71
       263   20.5300  4.472474    311.65    319.02      5.66
       264   20.5800  4.461724    318.86    318.84      5.72
       265   20.6300  4.451027    310.94    318.67      5.69
       266   20.6800  4.440382    316.56    318.49      5.65
       267   20.7300  4.429789    323.32    318.32      5.72
       268   20.7800  4.419247    324.64    318.14      5.75
       269   20.8300  4.408755    324.05    317.97      5.74
       270   20.8800  4.398315    314.32    317.80      5.70
       271   20.9300  4.387924    309.22    317.62      5.58
       272   20.9800  4.377584    315.18    317.45      5.65
       273   21.0300  4.367292    320.58    317.27      5.68
       274   21.0800  4.357050    315.58    317.10      5.63
       275   21.1300  4.346857    313.42    316.93      5.61
       276   21.1800  4.336712    311.30    316.75      5.61
       277   21.2300  4.326615    316.78    316.58      5.66
       278   21.2800  4.316566    311.92    316.41      5.61
       279   21.3300  4.306564    313.08    316.29      5.62
       280   21.3800  4.296609    319.76    316.18      5.67
       281   21.4300  4.286701    308.81    316.07      5.63
       282   21.4800  4.276840    308.56    315.96      5.66
       283   21.5300  4.267024    307.54    315.85      5.62
       284   21.5800  4.257254    313.11    315.73      5.63
       285   21.6300  4.247530    311.61    315.75      5.62
       286   21.6800  4.237851    319.65    315.64      5.69
       287   21.7300  4.228216    317.71    315.53      5.68
       288   21.7800  4.218626    314.57    315.42      5.67
       289   21.8300  4.209081    315.58    315.31      5.65
       290   21.8800  4.199579    316.61    315.20      5.72
       291   21.9300  4.190121    304.30    315.10      5.59
       292   21.9800  4.180706    310.90    314.99      5.60
       293   22.0300  4.171334    318.87    314.88      5.71
       294   22.0800  4.162004    318.60    314.77      5.68
       295   22.1300  4.152718    313.08    314.67      5.67
       296   22.1800  4.143473    298.84    314.56      5.60
       297   22.2300  4.134271    308.26    314.46      5.59
       298   22.2800  4.125109    307.49    314.35      5.58
       299   22.3300  4.115990    305.69    314.25      5.59
       300   22.3800  4.106911    315.42    314.14      5.63
       301   22.4300  4.097873    315.67    314.04      5.63
       302   22.4800  4.088875    321.13    313.93      5.70
       303   22.5300  4.079917    314.27    313.83      5.62
       304   22.5800  4.071000    304.66    313.70      5.55
       305   22.6300  4.062122    308.48    313.60      5.60
       306   22.6800  4.053284    308.11    313.50      5.64
       307   22.7300  4.044485    314.10    313.40      5.65
       308   22.7800  4.035724    311.85    313.30      5.61
       309   22.8300  4.027002    317.32    313.20      5.64
       310   22.8800  4.018319    310.32    313.10      5.58
       311   22.9300  4.009674    314.26    313.01      5.62
       312   22.9800  4.001066    323.15    312.91      5.71
       313   23.0300  3.992496    314.14    312.82      5.62
       314   23.0800  3.983964    312.31    312.73      5.62
       315   23.1300  3.975469    304.61    312.63      5.57
       316   23.1800  3.967010    312.39    312.54      5.61
       317   23.2300  3.958589    303.87    312.45      5.57
       318   23.2800  3.950204    310.54    312.37      5.63
       319   23.3300  3.941855    313.82    312.28      5.64
       320   23.3800  3.933542    308.22    312.20      5.61
       321   23.4300  3.925264    312.43    312.12      5.63
       322   23.4800  3.917022    312.05    312.04      5.61
       323   23.5300  3.908816    315.82    311.96      5.64
       324   23.5800  3.900645    308.16    311.88      5.57
       325   23.6300  3.892508    306.83    311.81      5.55
       326   23.6800  3.884406    303.46    311.73      5.56
       327   23.7300  3.876338    302.68    311.67      5.57
       328   23.7800  3.868305    306.36    311.60      5.58
       329   23.8300  3.860306    316.20    311.54      5.66
       330   23.8800  3.852340    315.60    311.48      5.66
       331   23.9300  3.844407    307.33    311.43      5.57
       332   23.9800  3.836509    304.32    311.39      5.53
       333   24.0300  3.828643    313.93    311.39      5.64
       334   24.0800  3.820810    314.57    311.38      5.66
       335   24.1300  3.813010    310.17    311.39      5.58
       336   24.1800  3.805242    313.06    311.40      5.64
       337   24.2300  3.797507    308.69    311.43      5.58
       338   24.2800  3.789804    318.41    311.46      5.65
       339   24.3300  3.782132    317.70    311.51      5.69
       340   24.3800  3.774493    306.78    311.56      5.65
       341   24.4300  3.766885    304.56    311.64      5.53
       342   24.4800  3.759308    313.41    311.73      5.64
       343   24.5300  3.751762    313.42    311.84      5.63
       344   24.5800  3.744248    314.48    311.97      5.66
       345   24.6300  3.736764    310.18    312.14      5.64
       346   24.6800  3.729310    306.24    312.34      5.60
       347   24.7300  3.721887    318.12    312.58      5.65
       348   24.7800  3.714494    324.46    312.89      5.71
       349   24.8300  3.707132    324.17    313.29      5.71
       350   24.8800  3.699799    321.71    313.81      5.69
       351   24.9300  3.692496    321.96    314.55      5.69
       352   24.9800  3.685222    314.45    315.63      5.63
       353   25.0300  3.677977    323.63    317.23      5.73
       354   25.0800  3.670762    336.56    319.61      5.89
       355   25.1300  3.663575    329.99    323.14      5.76
       356   25.1800  3.656418    338.90    328.21      5.86
       357   25.2300  3.649289    341.14    335.29      5.86
       358   25.2800  3.642188    342.69    344.86      5.86
       359   25.3300  3.635116    360.09    357.36      6.04
       360   25.3800  3.628072    372.36    373.11      6.16
       361   25.4300  3.621055    376.14    392.20      6.15
       362   25.4800  3.614067    404.54    414.29      6.37
       363   25.5300  3.607105    428.65    438.65      6.56
       364   25.5800  3.600172    453.94    464.30      6.76
       365   25.6300  3.593266    485.61    489.69      7.01
       366   25.6800  3.586387    526.88    512.22      7.27
       367   25.7300  3.579535    541.88    528.04      7.37
       368   25.7800  3.572709    534.71    533.08      7.34
       369   25.8300  3.565911    532.19    525.12      7.31
       370   25.8800  3.559139    517.79    505.30      7.21
       371   25.9300  3.552393    499.64    477.36      7.09
       372   25.9800  3.545673    474.85    445.87      6.94
       373   26.0300  3.538980    441.08    414.92      6.74
       374   26.0800  3.532312    411.55    387.37      6.43
       375   26.1300  3.525671    392.60    364.76      6.36
       376   26.1800  3.519054    368.34    347.60      6.16
       377   26.2300  3.512463    354.56    335.16      6.01
       378   26.2800  3.505898    337.01    326.67      5.86
       379   26.3300  3.499357    330.84    321.11      5.81
       380   26.3800  3.492842    332.15    317.54      5.78
       381   26.4300  3.486351    319.74    315.25      5.70
       382   26.4800  3.479886    320.53    313.73      5.72
       383   26.5300  3.473445    308.18    312.67      5.63
       384   26.5800  3.467028    310.32    311.88      5.60
       385   26.6300  3.460636    313.39    311.25      5.61
       386   26.6800  3.454268    308.23    310.73      5.66
       387   26.7300  3.447923    311.39    310.29      5.64
       388   26.7800  3.441603    307.75    309.90      5.57
       389   26.8300  3.435307    310.98    309.55      5.59
       390   26.8800  3.429034    306.34    309.25      5.61
       391   26.9300  3.422785    308.90    308.97      5.64
       392   26.9800  3.416559    310.50    308.72      5.64
       393   27.0300  3.410356    311.48    308.50      5.64
       394   27.0800  3.404177    306.01    308.29      5.58
       395   27.1300  3.398020    308.54    308.10      5.59
       396   27.1800  3.391886    309.83    307.93      5.58
       397   27.2300  3.385776    306.25    307.77      5.54
       398   27.2800  3.379688    308.16    307.62      5.57
       399   27.3300  3.373622    315.40    307.48      5.71
       400   27.3800  3.367579    308.98    307.36      5.61
       401   27.4300  3.361557    300.80    307.23      5.51
       402   27.4800  3.355558    306.46    307.10      5.57
       403   27.5300  3.349581    315.15    306.98      5.66
       404   27.5800  3.343626    301.03    306.86      5.58
       405   27.6300  3.337693    306.29    306.76      5.59
       406   27.6800  3.331781    307.12    306.65      5.62
       407   27.7300  3.325891    297.40    306.56      5.48
       408   27.7800  3.320022    298.12    306.47      5.48
       409   27.8300  3.314175    312.58    306.38      5.61
       410   27.8800  3.308349    312.98    306.30      5.71
       411   27.9300  3.302544    312.14    306.23      5.71
       412   27.9800  3.296760    295.70    306.15      5.49
       413   28.0300  3.290996    299.08    306.09      5.54
       414   28.0800  3.285254    311.97    306.03      5.69
       415   28.1300  3.279532    303.99    305.97      5.59
       416   28.1800  3.273830    315.64    305.92      5.66
       417   28.2300  3.268149    308.20    305.87      5.59
       418   28.2800  3.262488    304.44    305.83      5.63
       419   28.3300  3.256848    300.13    305.80      5.52
       420   28.3800  3.251228    303.53    305.77      5.57
       421   28.4300  3.245627    315.04    305.74      5.63
       422   28.4800  3.240047    310.11    305.72      5.58
       423   28.5300  3.234486    307.69    305.71      5.56
       424   28.5800  3.228945    301.92    305.71      5.54
       425   28.6300  3.223423    307.68    305.71      5.57
       426   28.6800  3.217921    296.58    305.72      5.46
       427   28.7300  3.212438    300.73    305.76      5.53
       428   28.7800  3.206975    313.14    305.79      5.61
       429   28.8300  3.201530    304.57    305.83      5.56
       430   28.8800  3.196105    294.20    305.88      5.46
       431   28.9300  3.190699    293.19    305.95      5.55
       432   28.9800  3.185311    305.35    306.02      5.56
       433   29.0300  3.179943    301.00    306.12      5.53
       434   29.0800  3.174592    297.54    306.23      5.49
       435   29.1300  3.169261    294.77    306.35      5.46
       436   29.1800  3.163948    297.39    306.50      5.48
       437   29.2300  3.158653    301.90    306.72      5.57
       438   29.2800  3.153377    302.83    306.97      5.57
       439   29.3300  3.148119    306.40    307.25      5.58
       440   29.3800  3.142879    306.08    307.57      5.55
       441   29.4300  3.137657    304.29    307.92      5.57
       442   29.4800  3.132453    296.25    308.32      5.51
       443   29.5300  3.127267    306.76    308.76      5.65
       444   29.5800  3.122099    304.46    309.27      5.55
       445   29.6300  3.116948    305.20    309.84      5.54
       446   29.6800  3.111815    301.77    310.50      5.50
       447   29.7300  3.106699    303.05    311.25      5.52
       448   29.7800  3.101600    305.55    312.11      5.55
       449   29.8300  3.096519    305.74    313.12      5.56
       450   29.8800  3.091455    309.42    314.31      5.58
       451   29.9300  3.086408    313.59    315.76      5.62
       452   29.9800  3.081379    315.30    317.58      5.63
       453   30.0300  3.076366    311.76    319.97      5.60
       454   30.0800  3.071370    327.18    323.30      5.73
       455   30.1300  3.066391    343.98    328.13      5.89
       456   30.1800  3.061428    353.85    335.33      5.96
       457   30.2300  3.056482    364.40    346.14      6.05
       458   30.2800  3.051553    375.56    362.24      6.18
       459   30.3300  3.046640    399.95    385.70      6.35
       460   30.3800  3.041744    426.57    418.73      6.55
       461   30.4300  3.036864    462.55    463.59      6.82
       462   30.4800  3.032000    517.85    521.94      7.21
       463   30.5300  3.027152    586.87    593.97      7.68
       464   30.5800  3.022320    641.20    677.51      8.02
       465   30.6300  3.017504    740.84    767.68      8.62
       466   30.6800  3.012704    852.03    857.55      9.25
       467   30.7300  3.007920    936.06    938.21      9.69
       468   30.7800  3.003152   1000.57    997.91     10.02
       469   30.8300  2.998399   1027.78   1023.18     10.16
       470   30.8800  2.993662   1009.45   1004.92     10.07
       471   30.9300  2.988940    970.49    945.01      9.87
       472   30.9800  2.984234    874.94    855.73      9.37
       473   31.0300  2.979543    772.98    753.35      8.81
       474   31.0800  2.974868    675.89    652.35      8.24
       475   31.1300  2.970208    579.09    562.87      7.62
       476   31.1800  2.965563    500.00    490.38      7.10
       477   31.2300  2.960932    446.74    436.33      6.72
       478   31.2800  2.956317    411.73    399.36      6.46
       479   31.3300  2.951717    384.36    376.59      6.22
       480   31.3800  2.947132    366.86    364.72      6.09
       481   31.4300  2.942561    363.37    360.76      6.06
       482   31.4800  2.938006    351.91    362.22      5.95
       483   31.5300  2.933464    358.23    367.11      5.99
       484   31.5800  2.928938    369.68    373.72      6.09
       485   31.6300  2.924426    376.32    380.60      6.15
       486   31.6800  2.919928    378.01    386.28      6.16
       487   31.7300  2.915445    386.26    389.19      6.23
       488   31.7800  2.910975    381.81    387.98      6.19
       489   31.8300  2.906521    377.51    382.25      6.15
       490   31.8800  2.902080    366.58    372.88      6.08
       491   31.9300  2.897654    355.72    361.52      5.98
       492   31.9800  2.893241    352.65    349.83      5.97
       493   32.0300  2.888843    341.28    339.06      5.86
       494   32.0800  2.884458    330.34    329.95      5.82
       495   32.1300  2.880087    328.26    322.80      5.76
       496   32.1800  2.875731    319.40    317.52      5.67
       497   32.2300  2.871387    316.38    313.81      5.64
       498   32.2800  2.867058    310.77    311.29      5.60
       499   32.3300  2.862742    315.35    309.60      5.66
       500   32.3800  2.858439    304.73    308.46      5.59
       501   32.4300  2.854150    304.71    307.65      5.56
       502   32.4800  2.849874    300.16    307.05      5.51
       503   32.5300  2.845612    295.31    306.58      5.47
       504   32.5800  2.841363    304.20    306.20      5.66
       505   32.6300  2.837127    301.30    305.87      5.54
       506   32.6800  2.832904    294.36    305.60      5.45
       507   32.7300  2.828695    295.51    305.36      5.47
       508   32.7800  2.824498    295.33    305.15      5.46
       509   32.8300  2.820314    299.36    304.97      5.52
       510   32.8800  2.816144    295.92    304.82      5.51
       511   32.9300  2.811986    297.53    304.69      5.52
       512   32.9800  2.807841    294.97    304.59      5.46
       513   33.0300  2.803709    304.54    304.51      5.55
       514   33.0800  2.799589    301.48    304.44      5.52
       515   33.1300  2.795482    297.98    304.40      5.53
       516   33.1800  2.791388    295.95    304.38      5.48
       517   33.2300  2.787305    293.49    304.37      5.46
       518   33.2800  2.783236    295.25    304.38      5.50
       519   33.3300  2.779179    302.50    304.41      5.58
       520   33.3800  2.775134    302.70    304.46      5.54
       521   33.4300  2.771101    297.88    304.53      5.49
       522   33.4800  2.767081    303.24    304.63      5.57
       523   33.5300  2.763073    304.95    304.74      5.56
       524   33.5800  2.759077    298.14    304.89      5.53
       525   33.6300  2.755093    294.12    305.06      5.47
       526   33.6800  2.751121    294.97    305.26      5.50
       527   33.7300  2.747161    290.45    305.50      5.46
       528   33.7800  2.743213    295.34    305.78      5.48
       529   33.8300  2.739277    292.98    306.10      5.45
       530   33.8800  2.735353    298.23    306.47      5.52
       531   33.9300  2.731440    310.86    306.89      5.60
       532   33.9800  2.727539    309.85    307.38      5.58
       533   34.0300  2.723650    300.96    307.95      5.54
       534   34.0800  2.719772    300.73    308.60      5.55
       535   34.1300  2.715906    306.41    309.36      5.56
       536   34.1800  2.712051    303.87    310.23      5.53
       537   34.2300  2.708208    302.92    311.26      5.54
       538   34.2800  2.704376    305.49    312.47      5.56
       539   34.3300  2.700555    310.48    313.93      5.62
       540   34.3800  2.696746    308.45    315.72      5.61
       541   34.4300  2.692948    318.19    318.02      5.70
       542   34.4800  2.689162    316.60    321.13      5.68
       543   34.5300  2.685386    336.06    325.56      5.83
       544   34.5800  2.681621    347.92    332.14      5.91
       545   34.6300  2.677868    359.14    342.20      6.01
       546   34.6800  2.674126    373.96    357.63      6.15
       547   34.7300  2.670394    407.11    380.93      6.40
       548   34.7800  2.666673    428.33    415.15      6.56
       549   34.8300  2.662963    468.99    463.42      6.86
       550   34.8800  2.659265    528.22    528.37      7.28
       551   34.9300  2.655576    617.27    610.86      7.88
       552   34.9800  2.651899    700.97    708.66      8.40
       553   35.0300  2.648232    800.71    815.45      8.96
       554   35.0800  2.644576    907.01    921.22      9.54
       555   35.1300  2.640931   1004.76   1013.41     10.04
       556   35.1800  2.637295   1088.99   1077.28     10.45
       557   35.2300  2.633671   1099.47   1097.48     10.51
       558   35.2800  2.630057   1047.52   1065.65     10.25
       559   35.3300  2.626453    987.37    987.38      9.95
       560   35.3800  2.622860    875.37    879.60      9.37
       561   35.4300  2.619277    759.88    761.82      8.73
       562   35.4800  2.615704    632.60    649.76      7.97
       563   35.5300  2.612142    547.45    553.38      7.44
       564   35.5800  2.608589    463.81    477.14      6.84
       565   35.6300  2.605047    403.73    421.05      6.38
       566   35.6800  2.601515    378.50    382.32      6.19
       567   35.7300  2.597993    348.61    356.92      5.93
       568   35.7800  2.594481    334.99    340.84      5.83
       569   35.8300  2.590979    326.11    330.78      5.72
       570   35.8800  2.587487    318.02    324.36      5.65
       571   35.9300  2.584005    317.78    320.07      5.65
       572   35.9800  2.580532    311.20    317.00      5.63
       573   36.0300  2.577070    299.15    314.66      5.49
       574   36.0800  2.573617    300.10    312.78      5.49
       575   36.1300  2.570174    302.95    311.22      5.52
       576   36.1800  2.566741    301.35    309.90      5.60
       577   36.2300  2.563317    300.25    308.77      5.56
       578   36.2800  2.559903    304.81    307.79      5.57
       579   36.3300  2.556498    296.53    306.95      5.56
       580   36.3800  2.553103    297.29    306.21      5.50
       581   36.4300  2.549718    294.29    305.57      5.52
       582   36.4800  2.546342    305.61    305.02      5.59
       583   36.5300  2.542975    307.49    304.54      5.60
       584   36.5800  2.539618    300.01    304.13      5.55
       585   36.6300  2.536270    300.02    303.78      5.54
       586   36.6800  2.532931    298.51    303.49      5.48
       587   36.7300  2.529602    299.32    303.25      5.50
       588   36.7800  2.526282    304.67    303.08      5.53
       589   36.8300  2.522970    308.06    302.98      5.66
       590   36.8800  2.519669    309.71    302.96      5.59
       591   36.9300  2.516376    305.73    303.06      5.57
       592   36.9800  2.513093    313.79    303.35      5.69
       593   37.0300  2.509818    315.48    303.90      5.67
       594   37.0800  2.506552    312.44    304.90      5.60
       595   37.1300  2.503296    310.65    306.56      5.62
       596   37.1800  2.500048    312.05    309.19      5.60
       597   37.2300  2.496809    319.01    313.11      5.68
       598   37.2800  2.493579    329.51    318.67      5.75
       599   37.3300  2.490358    333.20    326.09      5.82
       600   37.3800  2.487145    332.57    335.32      5.80
       601   37.4300  2.483942    335.31    345.91      5.84
       602   37.4800  2.480747    355.74    356.95      6.00
       603   37.5300  2.477561    369.34    367.15      6.13
       604   37.5800  2.474383    372.69    374.99      6.12
       605   37.6300  2.471214    368.42    378.83      6.10
       606   37.6800  2.468054    373.06    377.44      6.12
       607   37.7300  2.464902    365.47    370.90      6.06
       608   37.7800  2.461759    356.94    360.70      5.99
       609   37.8300  2.458624    343.97    348.89      5.87
       610   37.8800  2.455497    326.44    337.28      5.72
       611   37.9300  2.452379    309.80    327.08      5.58
       612   37.9800  2.449270    309.47    318.90      5.57
       613   38.0300  2.446168    309.99    312.85      5.58
       614   38.0800  2.443075    296.26    308.70      5.45
       615   38.1300  2.439991    297.82    306.06      5.47
       616   38.1800  2.436914    287.38    304.50      5.37
       617   38.2300  2.433846    291.90    303.53      5.42
       618   38.2800  2.430786    297.98    303.05      5.47
       619   38.3300  2.427734    296.61    302.90      5.47
       620   38.3800  2.424690    295.55    303.03      5.54
       621   38.4300  2.421654    302.67    303.46      5.53
       622   38.4800  2.418627    300.15    304.27      5.53
       623   38.5300  2.415607    297.25    305.70      5.48
       624   38.5800  2.412595    306.29    308.09      5.57
       625   38.6300  2.409591    319.21    312.04      5.66
       626   38.6800  2.406596    318.58    318.37      5.69
       627   38.7300  2.403608    322.70    328.12      5.70
       628   38.7800  2.400628    341.96    342.49      5.86
       629   38.8300  2.397655    363.96    362.52      6.09
       630   38.8800  2.394691    387.16    388.79      6.23
       631   38.9300  2.391734    429.73    420.77      6.57
       632   38.9800  2.388786    470.31    456.47      6.87
       633   39.0300  2.385845    499.15    492.27      7.09
       634   39.0800  2.382911    534.19    523.44      7.32
       635   39.1300  2.379985    546.28    544.61      7.40
       636   39.1800  2.377067    555.60    550.54      7.47
       637   39.2300  2.374156    537.72    538.65      7.35
       638   39.2800  2.371253    511.05    511.32      7.16
       639   39.3300  2.368358    474.95    474.73      6.90
       640   39.3800  2.365470    429.24    435.58      6.57
       641   39.4300  2.362589    388.38    399.04      6.25
       642   39.4800  2.359716    359.39    368.19      6.02
       643   39.5300  2.356851    345.79    344.20      5.94
       644   39.5800  2.353992    333.31    326.84      5.82
       645   39.6300  2.351142    318.72    315.02      5.69
       646   39.6800  2.348298    307.38    307.32      5.55
       647   39.7300  2.345462    311.96    302.42      5.61
       648   39.7800  2.342633    306.17    299.28      5.61
       649   39.8300  2.339812    312.20    297.18      5.60
       650   39.8800  2.336997    303.23    295.68      5.60
       651   39.9300  2.334190    306.58    294.53      5.70
       652   39.9800  2.331390    304.54    293.46      5.72
       653   40.0300  2.328597    294.66    292.65      5.63
       654   40.0800  2.325811    307.61    291.94      5.79
       655   40.1300  2.323033    305.89    291.31      5.80
       656   40.1800  2.320261    302.27    290.73      5.79
       657   40.2300  2.317497    316.78    290.20      5.95
       658   40.2800  2.314739    312.56    289.71      5.90
       659   40.3300  2.311989    299.07    289.26      5.79
       660   40.3800  2.309245    304.40    288.83      5.84
       661   40.4300  2.306509    308.02    288.43      5.92
       662   40.4800  2.303779    297.52    288.05      5.77
       663   40.5300  2.301056    291.17    287.68      5.70
       664   40.5800  2.298340    285.41    287.34      5.64
       665   40.6300  2.295631    286.32    287.00      5.65
       666   40.6800  2.292929    289.31    286.68      5.72
       667   40.7300  2.290234    280.44    286.37      5.61
       668   40.7800  2.287545    281.37    286.07      5.62
       669   40.8300  2.284863    283.47    285.78      5.63
       670   40.8800  2.282188    286.35    285.48      5.66
       671   40.9300  2.279519    286.60    285.20      5.68
       672   40.9800  2.276857    282.30    284.92      5.63
       673   41.0300  2.274202    278.39    284.66      5.60
       674   41.0800  2.271553    267.56    284.40      5.57
       675   41.1300  2.268911    267.29    284.14      5.48
       676   41.1800  2.266276    279.61    283.88      5.59
       677   41.2300  2.263647    286.73    283.69      5.67
       678   41.2800  2.261025    284.11    283.59      5.63
       679   41.3300  2.258409    276.99    283.50      5.57
       680   41.3800  2.255799    274.03    283.40      5.55
       681   41.4300  2.253196    280.41    283.31      5.63
       682   41.4800  2.250600    278.74    283.22      5.61
       683   41.5300  2.248010    282.09    283.14      5.69
       684   41.5800  2.245426    278.78    283.05      5.66
       685   41.6300  2.242848    284.38    282.97      5.67
       686   41.6800  2.240278    281.62    282.89      5.68
       687   41.7300  2.237713    278.98    282.82      5.63
       688   41.7800  2.235154    281.37    282.74      5.64
       689   41.8300  2.232602    269.57    282.67      5.51
       690   41.8800  2.230056    275.58    282.59      5.57
       691   41.9300  2.227516    272.84    282.52      5.55
       692   41.9800  2.224983    283.45    282.45      5.64
       693   42.0300  2.222456    286.98    282.39      5.67
       694   42.0800  2.219934    289.93    282.32      5.70
       695   42.1300  2.217419    291.30    282.26      5.71
       696   42.1800  2.214910    294.23    282.20      5.74
       697   42.2300  2.212408    298.45    282.14      5.81
       698   42.2800  2.209911    305.70    282.08      5.86
       699   42.3300  2.207420    302.10    282.02      5.81
       700   42.3800  2.204935    309.14    281.97      5.88
       701   42.4300  2.202456    305.04    281.92      5.87
       702   42.4800  2.199984    301.92    281.87      5.81
       703   42.5300  2.197517    299.71    281.83      5.78
       704   42.5800  2.195056    291.42    281.79      5.74
       705   42.6300  2.192601    294.12    281.75      5.74
       706   42.6800  2.190153    285.65    281.73      5.68
       707   42.7300  2.187710    287.90    281.71      5.68
       708   42.7800  2.185272    284.76    281.70      5.63
       709   42.8300  2.182841    284.63    281.71      5.66
       710   42.8800  2.180415    287.60    281.75      5.69
       711   42.9300  2.177995    280.37    281.83      5.63
       712   42.9800  2.175582    273.71    281.97      5.56
       713   43.0300  2.173173    281.05    282.20      5.62
       714   43.0800  2.170771    287.18    282.56      5.66
       715   43.1300  2.168374    283.61    283.12      5.68
       716   43.1800  2.165983    293.09    283.93      5.77
       717   43.2300  2.163598    302.78    285.06      5.88
       718   43.2800  2.161218    310.29    286.52      5.91
       719   43.3300  2.158844    303.20    288.29      5.84
       720   43.3800  2.156475    304.52    290.27      5.87
       721   43.4300  2.154112    315.50    292.31      6.02
       722   43.4800  2.151755    315.05    294.25      5.93
       723   43.5300  2.149403    315.42    295.89      5.93
       724   43.5800  2.147057    310.08    297.17      5.89
       725   43.6300  2.144716    304.85    298.16      5.84
       726   43.6800  2.142381    315.13    299.12      5.93
       727   43.7300  2.140052    315.80    300.31      5.96
       728   43.7800  2.137727    310.93    301.95      5.89
       729   43.8300  2.135408    312.35    304.13      5.94
       730   43.8800  2.133095    321.16    306.88      6.06
       731   43.9300  2.130787    316.05    310.16      5.95
       732   43.9800  2.128485    332.65    313.86      6.11
       733   44.0300  2.126188    335.35    317.86      6.11
       734   44.0800  2.123896    343.76    322.02      6.20
       735   44.1300  2.121609    353.68    326.20      6.29
       736   44.1800  2.119328    352.96    330.10      6.27
       737   44.2300  2.117053    343.85    333.90      6.26
       738   44.2800  2.114782    344.96    337.30      6.24
       739   44.3300  2.112517    350.07    340.18      6.26
       740   44.3800  2.110256    339.30    342.43      6.19
       741   44.4300  2.108002    348.58    343.95      6.29
       742   44.4800  2.105752    341.06    344.68      6.19
       743   44.5300  2.103508    329.10    344.59      6.06
       744   44.5800  2.101269    334.15    343.66      6.10
       745   44.6300  2.099035    327.25    341.94      6.07
       746   44.6800  2.096806    326.23    339.49      6.04
       747   44.7300  2.094582    324.30    336.40      6.01
       748   44.7800  2.092363    323.75    332.78      6.01
       749   44.8300  2.090149    318.14    328.75      5.95
       750   44.8800  2.087941    313.21    324.44      5.91
       751   44.9300  2.085738    303.24    319.98      5.82
       752   44.9800  2.083539    299.52    315.47      5.79
       753   45.0300  2.081346    305.04    311.02      5.87
       754   45.0800  2.079157    299.86    306.74      5.81
       755   45.1300  2.076974    299.66    302.68      5.81
       756   45.1800  2.074796    298.39    298.90      5.80
       757   45.2300  2.072622    294.10    295.45      5.80
       758   45.2800  2.070454    288.87    292.35      5.71
       759   45.3300  2.068290    291.78    289.60      5.70
       760   45.3800  2.066132    295.19    287.20      5.75
       761   45.4300  2.063978    285.25    285.13      5.68
       762   45.4800  2.061829    275.30    283.37      5.61
       763   45.5300  2.059685    281.88    281.90      5.66
       764   45.5800  2.057546    284.57    280.67      5.64
       765   45.6300  2.055411    277.06    279.66      5.58
       766   45.6800  2.053282    269.95    278.84      5.50
       767   45.7300  2.051157    274.69    278.18      5.53
       768   45.7800  2.049037    270.80    277.64      5.57
       769   45.8300  2.046922    268.05    277.22      5.51
       770   45.8800  2.044811    273.29    276.87      5.58
       771   45.9300  2.042706    273.64    276.70      5.54
       772   45.9800  2.040605    277.37    276.58      5.58
       773   46.0300  2.038509    278.73    276.51      5.61
       774   46.0800  2.036417    268.02    276.47      5.49
       775   46.1300  2.034330    276.33    276.46      5.60
       776   46.1800  2.032248    278.74    276.49      5.61
       777   46.2300  2.030170    280.42    276.55      5.69
       778   46.2800  2.028097    277.23    276.65      5.60
       779   46.3300  2.026029    282.85    276.83      5.64
       780   46.3800  2.023965    277.12    277.11      5.58
       781   46.4300  2.021906    276.30    277.58      5.57
       782   46.4800  2.019851    286.02    278.32      5.66
       783   46.5300  2.017801    285.78    279.42      5.65
       784   46.5800  2.015756    282.32    281.03      5.66
       785   46.6300  2.013715    292.14    283.19      5.78
       786   46.6800  2.011678    303.21    285.86      5.86
       787   46.7300  2.009646    306.29    288.86      5.87
       788   46.7800  2.007619    309.10    291.84      5.90
       789   46.8300  2.005596    311.66    294.31      5.90
       790   46.8800  2.003577    314.37    295.74      5.92
       791   46.9300  2.001563    307.97    295.72      5.88
       792   46.9800  1.999553    309.36    294.20      5.92
       793   47.0300  1.997548    303.89    291.58      5.91
       794   47.0800  1.995547    296.07    288.47      5.78
       795   47.1300  1.993551    288.11    285.42      5.68
       796   47.1800  1.991558    281.18    282.77      5.63
       797   47.2300  1.989571    274.53    280.67      5.54
       798   47.2800  1.987587    281.11    279.14      5.65
       799   47.3300  1.985608    283.24    278.10      5.67
       800   47.3800  1.983633    282.08    277.44      5.68
       801   47.4300  1.981663    273.96    277.03      5.61
       802   47.4800  1.979697    277.88    276.78      5.65
       803   47.5300  1.977735    273.77    276.62      5.56
       804   47.5800  1.975777    274.18    276.52      5.58
       805   47.6300  1.973824    278.89    276.45      5.59
       806   47.6800  1.971874    282.50    276.40      5.63
       807   47.7300  1.969929    275.75    276.36      5.56
       808   47.7800  1.967989    274.75    276.32      5.58
       809   47.8300  1.966052    277.36    276.30      5.62
       810   47.8800  1.964120    268.60    276.28      5.57
       811   47.9300  1.962191    274.65    276.26      5.57
       812   47.9800  1.960267    281.44    276.19      5.63
       813   48.0300  1.958347    281.94    276.17      5.61
       814   48.0800  1.956432    277.12    276.15      5.58
       815   48.1300  1.954520    269.36    276.12      5.51
       816   48.1800  1.952612    278.71    276.10      5.58
       817   48.2300  1.950709    285.94    276.09      5.67
       818   48.2800  1.948810    267.82    276.07      5.51
       819   48.3300  1.946914    276.42    276.05      5.58
       820   48.3800  1.945023    281.22    276.04      5.61
       821   48.4300  1.943135    272.86    276.02      5.57
       822   48.4800  1.941252    272.54    276.01      5.56
       823   48.5300  1.939373    278.05    276.00      5.59
       824   48.5800  1.937498    285.74    275.99      5.66
       825   48.6300  1.935627    273.62    275.98      5.53
       826   48.6800  1.933759    273.02    275.97      5.58
       827   48.7300  1.931896    275.69    275.96      5.60
       828   48.7800  1.930037    268.45    275.95      5.52
       829   48.8300  1.928181    286.69    275.94      5.71
       830   48.8800  1.926330    265.13    275.93      5.49
       831   48.9300  1.924482    269.14    275.93      5.51
       832   48.9800  1.922639    263.01    275.92      5.44
       833   49.0300  1.920799    272.89    275.91      5.53
       834   49.0800  1.918963    273.24    275.91      5.58
       835   49.1300  1.917131    277.37    275.90      5.58
       836   49.1800  1.915303    271.36    275.89      5.55
       837   49.2300  1.913479    279.33    275.89      5.60
       838   49.2800  1.911659    274.48    275.88      5.59
       839   49.3300  1.909842    275.05    275.88      5.55
       840   49.3800  1.908029    284.67    275.88      5.67
       841   49.4300  1.906220    272.36    275.87      5.65
       842   49.4800  1.904415    271.52    275.87      5.67
       843   49.5300  1.902614    270.40    275.87      5.61
       844   49.5800  1.900816    266.45    275.86      5.59
       845   49.6300  1.899022    268.50    275.86      5.54
       846   49.6800  1.897232    272.32    275.86      5.53
       847   49.7300  1.895445    276.87    275.86      5.59
       848   49.7800  1.893663    274.82    275.86      5.57
       849   49.8300  1.891884    271.14    275.86      5.56
       850   49.8800  1.890108    276.18    275.86      5.64
       851   49.9300  1.888337    277.93    275.87      5.68
       852   49.9800  1.886569    283.61    275.87      5.68
       853   50.0300  1.884805    273.41    275.88      5.55
       854   50.0800  1.883044    277.23    275.88      5.62
       855   50.1300  1.881287    275.04    275.89      5.55
       856   50.1800  1.879534    267.12    275.90      5.51
       857   50.2300  1.877784    273.27    275.92      5.63
       858   50.2800  1.876038    263.93    275.95      5.49
       859   50.3300  1.874295    272.70    275.98      5.55
       860   50.3800  1.872556    265.35    276.07      5.49
       861   50.4300  1.870821    283.37    276.13      5.64
       862   50.4800  1.869089    275.15    276.21      5.59
       863   50.5300  1.867361    273.21    276.33      5.62
       864   50.5800  1.865636    266.06    276.48      5.53
       865   50.6300  1.863915    275.02    276.69      5.55
       866   50.6800  1.862198    276.06    276.96      5.55
       867   50.7300  1.860484    279.86    277.32      5.61
       868   50.7800  1.858773    284.96    277.77      5.66
       869   50.8300  1.857066    283.96    278.36      5.64
       870   50.8800  1.855362    277.29    279.08      5.57
       871   50.9300  1.853662    284.99    279.98      5.65
       872   50.9800  1.851966    278.37    281.08      5.64
       873   51.0300  1.850273    285.83    282.40      5.67
       874   51.0800  1.848583    296.35    283.96      5.77
       875   51.1300  1.846896    296.88    285.77      5.76
       876   51.1800  1.845214    297.67    287.84      5.78
       877   51.2300  1.843534    293.86    290.17      5.75
       878   51.2800  1.841858    295.13    292.74      5.80
       879   51.3300  1.840185    307.46    295.53      5.89
       880   51.3800  1.838516    312.97    298.49      5.94
       881   51.4300  1.836850    299.71    301.57      5.81
       882   51.4800  1.835187    312.05    304.69      5.90
       883   51.5300  1.833528    329.78    307.78      6.06
       884   51.5800  1.831872    317.51    310.75      5.97
       885   51.6300  1.830220    326.92    313.50      6.05
       886   51.6800  1.828571    319.31    315.93      5.97
       887   51.7300  1.826925    332.19    317.95      6.10
       888   51.7800  1.825282    322.74    319.48      6.05
       889   51.8300  1.823643    320.03    320.45      6.00
       890   51.8800  1.822007    308.94    320.81      5.88
       891   51.9300  1.820374    311.29    320.56      5.91
       892   51.9800  1.818745    315.58    319.69      5.98
       893   52.0300  1.817119    304.08    318.26      5.83
       894   52.0800  1.815496    316.49    316.31      6.01
       895   52.1300  1.813876    314.48    313.94      5.97
       896   52.1800  1.812260    310.89    311.24      5.93
       897   52.2300  1.810647    296.48    308.30      5.79
       898   52.2800  1.809036    303.68    305.21      5.82
       899   52.3300  1.807430    302.04    302.08      5.83
       900   52.3800  1.805826    277.39    298.98      5.51
       901   52.4300  1.804226    282.26    295.99      5.54
       902   52.4800  1.802629    281.39    293.17      5.47
       903   52.5300  1.801034    279.88    290.55      5.40
       904   52.5800  1.799443    285.24    288.17      5.44
       905   52.6300  1.797856    282.61    286.06      5.41
       906   52.6800  1.796271    275.65    284.20      5.33
       907   52.7300  1.794690    280.11    282.60      5.32
       908   52.7800  1.793111    268.38    281.25      5.22
       909   52.8300  1.791536    277.09    280.12      5.29
       910   52.8800  1.789964    276.93    279.20      5.31
       911   52.9300  1.788395    271.35    278.46      5.24
       912   52.9800  1.786829    280.42    277.88      5.32
       913   53.0300  1.785266    276.05    277.42      5.30
       914   53.0800  1.783706    273.45    277.08      5.32
       915   53.1300  1.782149    276.14    276.82      5.27
       916   53.1800  1.780596    271.45    276.63      5.24
       917   53.2300  1.779045    275.19    276.49      5.26
       918   53.2800  1.777497    268.77    276.58      5.23
       919   53.3300  1.775953    270.42    276.62      5.25
       920   53.3800  1.774411    276.07    276.70      5.31
       921   53.4300  1.772873    274.67    276.81      5.31
       922   53.4800  1.771337    276.02    276.94      5.29
       923   53.5300  1.769805    266.57    277.10      5.20
       924   53.5800  1.768275    275.26    277.29      5.27
       925   53.6300  1.766748    268.12    277.52      5.22
       926   53.6800  1.765225    285.13    277.78      5.36
       927   53.7300  1.763704    273.30    278.12      5.24
       928   53.7800  1.762187    281.63    278.58      5.33
       929   53.8300  1.760671    277.88    279.25      5.29
       930   53.8800  1.759160    278.57    280.28      5.36
       931   53.9300  1.757651    282.83    281.89      5.36
       932   53.9800  1.756145    285.50    284.38      5.41
       933   54.0300  1.754642    292.46    288.06      5.45
       934   54.0800  1.753142    298.45    293.17      5.49
       935   54.1300  1.751644    304.01    299.74      5.55
       936   54.1800  1.750150    316.60    307.38      5.68
       937   54.2300  1.748659    333.21    315.24      5.78
       938   54.2800  1.747170    330.98    321.95      5.80
       939   54.3300  1.745684    332.56    325.93      5.85
       940   54.3800  1.744201    330.54    325.96      5.77
       941   54.4300  1.742721    330.58    321.95      5.76
       942   54.4800  1.741244    317.57    315.17      5.64
       943   54.5300  1.739770    305.60    307.34      5.54
       944   54.5800  1.738298    303.38    299.86      5.57
       945   54.6300  1.736829    283.46    293.57      5.34
       946   54.6800  1.735363    287.05    288.77      5.39
       947   54.7300  1.733900    283.27    285.42      5.36
       948   54.7800  1.732440    289.68    283.26      5.41
       949   54.8300  1.730982    275.27    281.95      5.26
       950   54.8800  1.729528    276.68    281.20      5.28
       951   54.9300  1.728076    268.95    280.79      5.28
       952   54.9800  1.726626    272.78    280.57      5.26
       953   55.0300  1.725180    279.85    280.46      5.35
       954   55.0800  1.723736    283.60    280.42      5.35
       955   55.1300  1.722295    278.28    280.42      5.30
       956   55.1800  1.720857    280.53    280.46      5.36
       957   55.2300  1.719421    275.84    280.52      5.29
       958   55.2800  1.717989    287.88    280.62      5.38
       959   55.3300  1.716558    287.44    280.74      5.39
       960   55.3800  1.715131    283.98    280.90      5.39
       961   55.4300  1.713706    283.60    281.13      5.36
       962   55.4800  1.712284    276.65    281.41      5.29
       963   55.5300  1.710865    283.40    281.79      5.38
       964   55.5800  1.709448    288.26    282.33      5.40
       965   55.6300  1.708035    286.06    283.15      5.39
       966   55.6800  1.706623    284.80    284.44      5.37
       967   55.7300  1.705215    279.76    286.43      5.31
       968   55.7800  1.703809    284.17    289.40      5.37
       969   55.8300  1.702405    296.99    293.59      5.46
       970   55.8800  1.701004    305.95    299.05      5.60
       971   55.9300  1.699606    306.24    305.52      5.58
       972   55.9800  1.698211    318.04    312.32      5.68
       973   56.0300  1.696818    335.00    318.28      5.84
       974   56.0800  1.695428    331.67    322.02      5.84
       975   56.1300  1.694040    333.75    322.43      5.81
       976   56.1800  1.692655    326.80    319.25      5.73
       977   56.2300  1.691273    316.15    313.59      5.68
       978   56.2800  1.689893    311.95    306.97      5.63
       979   56.3300  1.688515    300.90    300.62      5.54
       980   56.3800  1.687140    293.48    295.28      5.44
       981   56.4300  1.685768    289.49    291.23      5.45
       982   56.4800  1.684399    285.28    288.43      5.37
       983   56.5300  1.683031    289.75    286.65      5.42
       984   56.5800  1.681667    292.79    285.60      5.44
       985   56.6300  1.680305    296.10    285.03      5.51
       986   56.6800  1.678945    279.09    284.74      5.34
       987   56.7300  1.677588    282.06    284.62      5.40
       988   56.7800  1.676234    282.90    284.58      5.34
       989   56.8300  1.674882    284.85    284.61      5.37
       990   56.8800  1.673532    284.19    284.67      5.36
       991   56.9300  1.672185    286.10    284.76      5.38
       992   56.9800  1.670841    287.74    284.88      5.39
       993   57.0300  1.669499    292.26    285.02      5.42
       994   57.0800  1.668159    292.35    285.18      5.45
       995   57.1300  1.666822    286.87    285.36      5.36
       996   57.1800  1.665487    287.05    285.56      5.39
       997   57.2300  1.664155    284.05    285.79      5.36
       998   57.2800  1.662825    292.05    286.05      5.48
       999   57.3300  1.661498    282.86    286.33      5.35
      1000   57.3800  1.660173    283.42    286.64      5.34
      1001   57.4300  1.658851    295.69    286.99      5.48
      1002   57.4800  1.657531    293.16    287.39      5.43
      1003   57.5300  1.656213    289.20    287.84      5.40
      1004   57.5800  1.654898    279.14    288.36      5.29
      1005   57.6300  1.653585    286.84    288.97      5.37
      1006   57.6800  1.652275    287.35    289.70      5.38
      1007   57.7300  1.650967    290.04    290.61      5.42
      1008   57.7800  1.649661    290.83    291.85      5.46
      1009   57.8300  1.648358    296.14    293.62      5.46
      1010   57.8800  1.647057    291.48    296.38      5.45
      1011   57.9300  1.645758    302.22    300.81      5.55
      1012   57.9800  1.644462    317.61    307.92      5.66
      1013   58.0300  1.643168    318.97    318.94      5.71
      1014   58.0800  1.641877    333.42    335.04      5.79
      1015   58.1300  1.640588    361.99    356.79      6.03
      1016   58.1800  1.639301    394.30    383.59      6.29
      1017   58.2300  1.638016    422.46    412.99      6.52
      1018   58.2800  1.636734    447.88    440.38      6.73
      1019   58.3300  1.635454    466.55    459.52      6.84
      1020   58.3800  1.634177    461.16    464.51      6.80
      1021   58.4300  1.632902    445.95    453.35      6.69
      1022   58.4800  1.631629    425.35    429.83      6.53
      1023   58.5300  1.630358    396.42    400.75      6.32
      1024   58.5800  1.629090    365.42    372.06      6.09
      1025   58.6300  1.627824    338.36    347.42      5.83
      1026   58.6800  1.626560    320.73    328.41      5.71
      1027   58.7300  1.625299    303.87    314.99      5.57
      1028   58.7800  1.624039    294.11    306.22      5.46
      1029   58.8300  1.622782    293.58    300.81      5.46
      1030   58.8800  1.621528    296.19    297.63      5.45
      1031   58.9300  1.620275    289.31    295.71      5.47
      1032   58.9800  1.619025    296.66    294.53      5.49
      1033   59.0300  1.617777    295.91    293.76      5.46
      1034   59.0800  1.616531    294.55    293.23      5.47
      1035   59.1300  1.615287    291.38    292.85      5.43
      1036   59.1800  1.614046    295.09    292.57      5.50
      1037   59.2300  1.612807    292.40    292.37      5.43
      1038   59.2800  1.611570    292.05    292.23      5.41
      1039   59.3300  1.610335    286.71    292.15      5.36
      1040   59.3800  1.609103    291.36    292.12      5.42
      1041   59.4300  1.607872    283.69    292.12      5.35
      1042   59.4800  1.606644    283.79    292.15      5.34
      1043   59.5300  1.605418    287.57    292.23      5.37
      1044   59.5800  1.604195    293.75    292.32      5.43
      1045   59.6300  1.602973    290.06    292.45      5.40
      1046   59.6800  1.601754    286.78    292.60      5.40
      1047   59.7300  1.600536    285.44    292.78      5.37
      1048   59.7800  1.599321    291.15    292.98      5.41
      1049   59.8300  1.598108    290.71    293.19      5.42
      1050   59.8800  1.596897    293.74    293.41      5.44
      1051   59.9300  1.595689    286.12    293.66      5.39
      1052   59.9800  1.594482    287.92    293.95      5.41
      1053   60.0300  1.593278    295.69    294.29      5.46
      1054   60.0800  1.592075    296.52    294.67      5.46
      1055   60.1300  1.590875    289.29    295.10      5.45
      1056   60.1800  1.589677    287.26    295.61      5.38
      1057   60.2300  1.588481    289.45    296.18      5.44
      1058   60.2800  1.587287    289.04    296.86      5.45
      1059   60.3300  1.586095    287.06    297.65      5.40
      1060   60.3800  1.584906    296.09    298.58      5.52
      1061   60.4300  1.583718    293.78    299.70      5.49
      1062   60.4800  1.582532    294.02    301.08      5.45
      1063   60.5300  1.581349    299.13    302.87      5.49
      1064   60.5800  1.580167    299.53    305.33      5.53
      1065   60.6300  1.578988    299.88    308.98      5.53
      1066   60.6800  1.577811    311.11    314.78      5.59
      1067   60.7300  1.576636    319.65    324.25      5.68
      1068   60.7800  1.575462    341.37    339.64      5.90
      1069   60.8300  1.574291    360.44    363.62      6.06
      1070   60.8800  1.573122    400.57    398.65      6.35
      1071   60.9300  1.571955    447.31    445.75      6.70
      1072   60.9800  1.570790    511.88    503.13      7.17
      1073   61.0300  1.569627    586.58    564.79      7.68
      1074   61.0800  1.568466    631.98    619.85      7.97
      1075   61.1300  1.567307    666.02    654.16      8.18
      1076   61.1800  1.566150    657.91    655.88      8.13
      1077   61.2300  1.564995    634.48    623.88      7.98
      1078   61.2800  1.563842    573.05    569.38      7.58
      1079   61.3300  1.562691    496.27    507.35      7.06
      1080   61.3800  1.561542    443.07    449.25      6.68
      1081   61.4300  1.560395    391.28    401.37      6.27
      1082   61.4800  1.559250    355.61    365.72      6.01
      1083   61.5300  1.558107    330.99    341.35      5.77
      1084   61.5800  1.556966    312.78    325.89      5.61
      1085   61.6300  1.555827    302.89    316.42      5.53
      1086   61.6800  1.554690    305.73    310.72      5.57
      1087   61.7300  1.553555    294.68    307.19      5.45
      1088   61.7800  1.552421    302.06    304.88      5.52
      1089   61.8300  1.551290    301.45    303.24      5.52
      1090   61.8800  1.550161    299.93    302.00      5.51
      1091   61.9300  1.549033    301.61    301.02      5.55
      1092   61.9800  1.547908    300.23    300.24      5.52
      1093   62.0300  1.546785    289.93    299.60      5.40
      1094   62.0800  1.545663    291.47    299.08      5.43
      1095   62.1300  1.544543    287.68    298.65      5.39
      1096   62.1800  1.543425    291.19    298.31      5.46
      1097   62.2300  1.542310    288.32    298.03      5.40
      1098   62.2800  1.541196    296.70    297.81      5.48
      1099   62.3300  1.540084    289.38    297.64      5.43
      1100   62.3800  1.538973    297.25    297.51      5.48
      1101   62.4300  1.537865    293.18    297.43      5.43
      1102   62.4800  1.536759    290.90    297.35      5.41
      1103   62.5300  1.535654    292.20    297.30      5.43
      1104   62.5800  1.534552    295.60    297.29      5.49
      1105   62.6300  1.533451    291.89    297.31      5.45
      1106   62.6800  1.532352    293.53    297.37      5.47
      1107   62.7300  1.531255    301.80    297.45      5.54
      1108   62.7800  1.530160    293.33    297.58      5.45
      1109   62.8300  1.529066    288.92    297.74      5.47
      1110   62.8800  1.527975    303.41    297.95      5.53
      1111   62.9300  1.526885    304.56    298.21      5.54
      1112   62.9800  1.525798    307.37    298.53      5.56
      1113   63.0300  1.524712    317.85    298.91      5.66
      1114   63.0800  1.523628    306.16    299.38      5.57
      1115   63.1300  1.522545    300.73    299.95      5.56
      1116   63.1800  1.521465    303.86    300.67      5.54
      1117   63.2300  1.520386    303.47    301.58      5.53
      1118   63.2800  1.519310    300.51    302.83      5.57
      1119   63.3300  1.518235    297.59    304.65      5.51
      1120   63.3800  1.517161    305.48    307.50      5.54
      1121   63.4300  1.516090    301.06    312.17      5.52
      1122   63.4800  1.515020    314.95    319.85      5.64
      1123   63.5300  1.513953    334.48    332.08      5.81
      1124   63.5800  1.512887    347.31    350.41      5.92
      1125   63.6300  1.511822    384.07    375.76      6.23
      1126   63.6800  1.510760    425.94    407.58      6.57
      1127   63.7300  1.509699    453.31    442.97      6.76
      1128   63.7800  1.508641    497.36    476.09      7.09
      1129   63.8300  1.507583    514.40    498.57      7.19
      1130   63.8800  1.506528    527.88    502.65      7.28
      1131   63.9300  1.505475    490.49    486.55      7.05
      1132   63.9800  1.504423    462.68    456.43      6.84
      1133   64.0300  1.503373    423.30    421.37      6.51
      1134   64.0800  1.502325    383.66    388.52      6.21
      1135   64.1300  1.501278    356.39    361.84      5.99
      1136   64.1800  1.500233    335.86    342.66      5.81
      1137   64.2300  1.499190    335.80    330.42      5.82
      1138   64.2800  1.498149    326.85    323.40      5.76
      1139   64.3300  1.497109    316.48    319.62      5.72
      1140   64.3800  1.496071    317.17    317.27      5.66
      1141   64.4300  1.495035    315.01    315.07      5.65
      1142   64.4800  1.494001    321.46    312.52      5.71
      1143   64.5300  1.492968    315.32    309.76      5.64
      1144   64.5800  1.491937    315.39    307.11      5.63
      1145   64.6300  1.490908    300.98    304.82      5.53
      1146   64.6800  1.489880    300.19    303.00      5.60
      1147   64.7300  1.488854    298.88    301.65      5.51
      1148   64.7800  1.487830    303.17    300.72      5.55
      1149   64.8300  1.486808    296.08    300.08      5.47
      1150   64.8800  1.485787    297.72    299.66      5.49
      1151   64.9300  1.484768    295.82    299.38      5.51
      1152   64.9800  1.483750    295.99    299.19      5.56
      1153   65.0300  1.482735    300.80    299.06      5.55
      1154   65.0800  1.481720    292.55    298.98      5.48
      1155   65.1300  1.480708    286.02    298.93      5.42
      1156   65.1800  1.479697    296.52    298.93      5.48
      1157   65.2300  1.478688    293.50    298.95      5.49
      1158   65.2800  1.477681    305.86    298.97      5.56
      1159   65.3300  1.476675    305.89    299.01      5.62
      1160   65.3800  1.475671    297.03    299.08      5.50
      1161   65.4300  1.474668    299.39    299.18      5.52
      1162   65.4800  1.473667    298.99    299.32      5.53
      1163   65.5300  1.472668    298.24    299.50      5.49
      1164   65.5800  1.471670    293.54    299.73      5.43
      1165   65.6300  1.470674    294.85    300.02      5.49
      1166   65.6800  1.469680    301.52    300.37      5.55
      1167   65.7300  1.468687    302.13    300.80      5.56
      1168   65.7800  1.467696    297.38    301.34      5.51
      1169   65.8300  1.466707    298.44    302.02      5.49
      1170   65.8800  1.465719    301.13    302.90      5.54
      1171   65.9300  1.464733    297.32    304.11      5.55
      1172   65.9800  1.463748    308.56    305.89      5.59
      1173   66.0300  1.462765    306.10    308.70      5.62
      1174   66.0800  1.461783    314.13    313.36      5.63
      1175   66.1300  1.460804    316.69    321.07      5.67
      1176   66.1800  1.459825    330.81    333.39      5.76
      1177   66.2300  1.458849    341.12    351.82      5.85
      1178   66.2800  1.457873    371.25    377.18      6.12
      1179   66.3300  1.456900    418.63    408.65      6.48
      1180   66.3800  1.455928    457.24    442.93      6.77
      1181   66.4300  1.454958    474.81    473.70      6.91
      1182   66.4800  1.453989    485.61    492.17      6.99
      1183   66.5300  1.453022    489.79    491.23      7.01
      1184   66.5800  1.452056    479.91    471.12      6.95
      1185   66.6300  1.451092    449.89    439.43      6.73
      1186   66.6800  1.450129    412.52    405.04      6.44
      1187   66.7300  1.449168    361.05    374.04      6.04
      1188   66.7800  1.448209    344.55    349.42      5.91
      1189   66.8300  1.447251    321.68    331.74      5.73
      1190   66.8800  1.446295    329.11    320.07      5.76
      1191   66.9300  1.445340    307.76    312.84      5.61
      1192   66.9800  1.444386    311.40    308.51      5.61
      1193   67.0300  1.443435    306.76    305.90      5.57
      1194   67.0800  1.442484    302.08    304.26      5.51
      1195   67.1300  1.441536    294.86    303.15      5.44
      1196   67.1800  1.440588    303.52    302.35      5.54
      1197   67.2300  1.439643    306.28    301.75      5.56
      1198   67.2800  1.438699    298.57    301.29      5.61
      1199   67.3300  1.437756    301.98    300.94      5.62
      1200   67.3800  1.436815    295.17    300.69      5.53
      1201   67.4300  1.435875    289.20    300.52      5.51
      1202   67.4800  1.434937    298.92    300.44      5.53
      1203   67.5300  1.434000    298.18    300.45      5.49
      1204   67.5800  1.433065    298.67    300.58      5.52
      1205   67.6300  1.432132    290.67    300.86      5.47
      1206   67.6800  1.431199    294.11    301.38      5.58
      1207   67.7300  1.430269    304.51    302.28      5.58
      1208   67.7800  1.429340    296.08    303.71      5.50
      1209   67.8300  1.428412    298.36    305.75      5.47
      1210   67.8800  1.427485    300.06    308.35      5.51
      1211   67.9300  1.426561    313.06    311.27      5.66
      1212   67.9800  1.425637    311.08    314.02      5.62
      1213   68.0300  1.424716    314.26    315.89      5.66
      1214   68.0800  1.423795    318.97    316.27      5.69
      1215   68.1300  1.422876    306.33    315.13      5.69
      1216   68.1800  1.421959    302.93    313.08      5.67
      1217   68.2300  1.421043    314.99    310.89      5.80
      1218   68.2800  1.420128    313.76    309.10      5.70
      1219   68.3300  1.419215    305.83    308.01      5.66
      1220   68.3800  1.418303    304.35    307.70      5.60
      1221   68.4300  1.417393    313.13    308.19      5.64
      1222   68.4800  1.416484    303.54    309.50      5.58
      1223   68.5300  1.415577    309.58    311.81      5.62
      1224   68.5800  1.414671    309.02    315.60      5.63
      1225   68.6300  1.413767    323.40    321.94      5.73
      1226   68.6800  1.412863    336.74    332.65      5.85
      1227   68.7300  1.411962    346.90    350.49      5.90
      1228   68.7800  1.411062    379.77    378.77      6.17
      1229   68.8300  1.410163    420.81    420.42      6.50
      1230   68.8800  1.409265    480.00    476.34      6.94
      1231   68.9300  1.408369    558.92    543.39      7.49
      1232   68.9800  1.407475    625.20    612.52      7.92
      1233   69.0300  1.406582    669.15    667.89      8.20
      1234   69.0800  1.405690    694.05    690.72      8.35
      1235   69.1300  1.404799    679.56    670.84      8.26
      1236   69.1800  1.403910    618.34    616.70      7.88
      1237   69.2300  1.403023    550.37    547.43      7.43
      1238   69.2800  1.402136    483.43    479.49      6.96
      1239   69.3300  1.401252    419.43    422.37      6.52
      1240   69.3800  1.400368    373.59    379.50      6.14
      1241   69.4300  1.399486    345.42    350.20      5.92
      1242   69.4800  1.398605    320.21    331.59      5.69
      1243   69.5300  1.397726    313.51    320.29      5.61
      1244   69.5800  1.396848    318.18    313.48      5.67
      1245   69.6300  1.395972    310.61    309.20      5.61
      1246   69.6800  1.395096    301.88    306.32      5.64
      1247   69.7300  1.394222    288.43    304.21      5.39
      1248   69.7800  1.393350    303.13    302.57      5.51
      1249   69.8300  1.392479    299.77    301.24      5.49
      1250   69.8800  1.391609    294.51    300.14      5.50
      1251   69.9300  1.390741    297.66    299.22      5.48
      1252   69.9800  1.389874    293.61    298.43      5.44
      1253   70.0300  1.389008    289.41    297.76      5.47
      1254   70.0800  1.388143    294.06    297.19      5.49
      1255   70.1300  1.387280    291.70    296.69      5.45
      1256   70.1800  1.386419    290.66    296.27      5.45
      1257   70.2300  1.385558    295.01    295.90      5.51
      1258   70.2800  1.384699    294.14    295.58      5.51
      1259   70.3300  1.383841    304.53    295.32      5.64
      1260   70.3800  1.382985    293.38    295.09      5.50
      1261   70.4300  1.382130    288.64    294.88      5.40
      1262   70.4800  1.381276    294.26    294.65      5.45
      1263   70.5300  1.380424    285.70    294.47      5.38
      1264   70.5800  1.379573    290.75    294.33      5.44
      1265   70.6300  1.378723    290.58    294.23      5.46
      1266   70.6800  1.377874    301.43    294.18      5.53
      1267   70.7300  1.377027    297.91    294.18      5.58
      1268   70.7800  1.376181    290.86    294.25      5.48
      1269   70.8300  1.375337    295.26    294.38      5.46
      1270   70.8800  1.374493    287.95    294.60      5.47
      1271   70.9300  1.373651    289.74    294.94      5.41
      1272   70.9800  1.372810    299.95    295.42      5.49
      1273   71.0300  1.371971    295.67    296.14      5.50
      1274   71.0800  1.371133    298.67    297.23      5.52
      1275   71.1300  1.370296    298.02    299.01      5.52
      1276   71.1800  1.369460    303.68    302.03      5.55
      1277   71.2300  1.368626    306.39    307.22      5.55
      1278   71.2800  1.367793    327.23    315.88      5.74
      1279   71.3300  1.366961    337.06    329.48      5.84
      1280   71.3800  1.366131    351.91    349.11      5.98
      1281   71.4300  1.365302    375.18    374.71      6.14
      1282   71.4800  1.364474    406.80    404.10      6.40
      1283   71.5300  1.363647    438.37    432.23      6.63
      1284   71.5800  1.362822    449.87    451.12      6.72
      1285   71.6300  1.361997    459.44    453.03      6.80
      1286   71.6800  1.361174    450.09    437.02      6.74
      1287   71.7300  1.360353    421.28    409.89      6.56
      1288   71.7800  1.359532    384.99    380.16      6.30
      1289   71.8300  1.358713    358.54    353.67      6.02
      1290   71.8800  1.357895    335.28    333.20      5.84
      1291   71.9300  1.357079    324.31    319.20      5.71
      1292   71.9800  1.356263    322.58    310.70      5.70
      1293   72.0300  1.355449    304.69    306.07      5.60
      1294   72.0800  1.354636    299.54    303.59      5.51
      1295   72.1300  1.353824    302.65    301.82      5.55
      1296   72.1800  1.353014    300.57    299.85      5.56
      1297   72.2300  1.352205    294.96    297.52      5.54
      1298   72.2800  1.351396    305.42    295.09      5.57
      1299   72.3300  1.350590    293.33    292.84      5.43
      1300   72.3800  1.349784    292.82    290.95      5.46
      1301   72.4300  1.348980    288.49    289.45      5.40
      1302   72.4800  1.348176    291.68    288.32      5.42
      1303   72.5300  1.347375    287.74    287.48      5.39
      1304   72.5800  1.346574    281.91    286.83      5.40
      1305   72.6300  1.345774    280.20    286.30      5.32
      1306   72.6800  1.344976    285.06    285.86      5.37
      1307   72.7300  1.344179    276.50    285.47      5.29
      1308   72.7800  1.343383    282.98    285.12      5.34
      1309   72.8300  1.342588    279.72    284.80      5.38
      1310   72.8800  1.341794    279.14    284.49      5.34
      1311   72.9300  1.341002    287.45    284.21      5.40
      1312   72.9800  1.340211    291.23    283.94      5.44
      1313   73.0300  1.339421    285.37    283.68      5.48
      1314   73.0800  1.338632    280.48    283.43      5.32
      1315   73.1300  1.337845    281.85    283.22      5.34
      1316   73.1800  1.337058    280.71    283.07      5.39
      1317   73.2300  1.336273    278.94    282.92      5.34
      1318   73.2800  1.335489    277.92    282.78      5.30
      1319   73.3300  1.334706    287.12    282.64      5.38
      1320   73.3800  1.333924    282.39    282.51      5.34
      1321   73.4300  1.333144    279.37    282.39      5.31
      1322   73.4800  1.332364    280.81    282.27      5.35
      1323   73.5300  1.331586    288.33    282.15      5.39
      1324   73.5800  1.330809    285.77    282.04      5.40
      1325   73.6300  1.330033    284.14    281.93      5.48
      1326   73.6800  1.329258    281.99    281.82      5.35
      1327   73.7300  1.328485    285.37    281.72      5.45
      1328   73.7800  1.327712    281.85    281.62      5.36
      1329   73.8300  1.326941    282.23    281.53      5.37
      1330   73.8800  1.326171    276.00    281.44      5.36
      1331   73.9300  1.325402    264.64    281.35      5.26
      1332   73.9800  1.324634    277.25    281.27      5.34
      1333   74.0300  1.323867    284.39    281.19      5.38
      1334   74.0800  1.323102    278.91    281.12      5.31
      1335   74.1300  1.322337    276.85    281.02      5.30
      1336   74.1800  1.321574    273.59    280.99      5.27
      1337   74.2300  1.320812    282.55    280.99      5.36
      1338   74.2800  1.320051    290.63    281.07      5.42
      1339   74.3300  1.319291    284.21    281.25      5.34
      1340   74.3800  1.318532    290.46    281.57      5.42
      1341   74.4300  1.317774    293.29    282.05      5.45
      1342   74.4800  1.317018    278.64    282.67      5.30
      1343   74.5300  1.316262    282.82    283.35      5.33
      1344   74.5800  1.315508    291.69    283.91      5.43
      1345   74.6300  1.314755    296.81    284.16      5.49
      1346   74.6800  1.314003    289.31    283.88      5.44
      1347   74.7300  1.313252    290.25    283.21      5.41
      1348   74.7800  1.312502    293.26    282.39      5.45
      1349   74.8300  1.311753    292.64    281.59      5.42
      1350   74.8800  1.311006    284.42    280.93      5.36
      1351   74.9300  1.310259    284.01    280.43      5.38
      1352   74.9800  1.309513    276.60    280.08      5.28
      1353   75.0300  1.308769    283.12    279.84      5.35
      1354   75.0800  1.308026    281.67    279.68      5.34
      1355   75.1300  1.307284    284.85    279.58      5.35
      1356   75.1800  1.306543    284.22    279.51      5.37
      1357   75.2300  1.305803    269.99    279.48      5.25
      1358   75.2800  1.305064    283.79    279.47      5.41
      1359   75.3300  1.304326    280.66    279.58      5.34
      1360   75.3800  1.303589    285.33    279.78      5.49
      1361   75.4300  1.302853    283.89    280.05      5.36
      1362   75.4800  1.302119    281.18    280.43      5.47
      1363   75.5300  1.301385    278.97    280.95      5.33
      1364   75.5800  1.300653    286.77    281.63      5.38
      1365   75.6300  1.299922    285.15    282.53      5.44
      1366   75.6800  1.299191    285.17    283.71      5.36
      1367   75.7300  1.298462    283.20    285.20      5.34
      1368   75.7800  1.297734    284.33    287.06      5.35
      1369   75.8300  1.297007    279.30    289.34      5.32
      1370   75.8800  1.296281    297.22    292.06      5.52
      1371   75.9300  1.295556    292.42    295.23      5.46
      1372   75.9800  1.294832    293.94    298.85      5.48
      1373   76.0300  1.294109    289.11    302.87      5.56
      1374   76.0800  1.293387    302.16    307.21      5.59
      1375   76.1300  1.292666    314.42    311.75      5.64
      1376   76.1800  1.291947    307.81    316.36      5.56
      1377   76.2300  1.291228    311.06    320.85      5.59
      1378   76.2800  1.290510    324.40    325.03      5.74
      1379   76.3300  1.289794    331.26    328.68      5.80
      1380   76.3800  1.289078    342.72    331.61      5.92
      1381   76.4300  1.288364    333.01    333.64      5.80
      1382   76.4800  1.287650    344.85    334.62      5.88
      1383   76.5300  1.286938    343.74    334.51      5.88
      1384   76.5800  1.286226    333.17    333.20      5.81
      1385   76.6300  1.285516    336.09    330.97      5.81
      1386   76.6800  1.284807    327.98    327.89      5.74
      1387   76.7300  1.284098    321.56    324.13      5.76
      1388   76.7800  1.283391    314.23    319.89      5.67
      1389   76.8300  1.282685    316.12    315.40      5.66
      1390   76.8800  1.281980    307.46    310.84      5.64
      1391   76.9300  1.281275    295.67    306.38      5.51
      1392   76.9800  1.280572    299.02    302.15      5.48
      1393   77.0300  1.279870    294.71    298.27      5.44
      1394   77.0800  1.279169    288.94    294.81      5.46
      1395   77.1300  1.278469    290.06    291.79      5.47
      1396   77.1800  1.277769    284.21    289.26      5.39
      1397   77.2300  1.277071    303.28    287.13      5.52
      1398   77.2800  1.276374    291.13    285.41      5.51
      1399   77.3300  1.275678    290.86    284.04      5.47
      1400   77.3800  1.274983    298.88    282.98      5.54
      1401   77.4300  1.274289    295.36    282.18      5.49
      1402   77.4800  1.273595    293.83    281.58      5.46
      1403   77.5300  1.272903    291.53    281.14      5.46
      1404   77.5800  1.272212    282.48    280.83      5.34
      1405   77.6300  1.271522    281.92    280.60      5.32
      1406   77.6800  1.270833    282.89    280.45      5.33
      1407   77.7300  1.270145    272.63    280.35      5.23
      1408   77.7800  1.269457    278.19    280.28      5.33
      1409   77.8300  1.268771    280.34    280.24      5.32
      1410   77.8800  1.268086    285.86    280.21      5.36
      1411   77.9300  1.267402    288.29    280.20      5.39
      1412   77.9800  1.266719    278.59    280.20      5.29
      1413   78.0300  1.266036    284.58    280.20      5.38
      1414   78.0800  1.265355    280.97    280.20      5.32
      1415   78.1300  1.264675    279.68    280.21      5.30
      1416   78.1800  1.263995    280.88    280.23      5.33
      1417   78.2300  1.263317    279.05    280.26      5.30
      1418   78.2800  1.262639    277.59    280.34      5.31
      1419   78.3300  1.261963    277.21    280.43      5.32
      1420   78.3800  1.261287    289.21    280.52      5.39
      1421   78.4300  1.260613    281.65    280.61      5.38
      1422   78.4800  1.259939    276.04    280.70      5.28
      1423   78.5300  1.259267    275.44    280.80      5.26
      1424   78.5800  1.258595    282.45    280.89      5.32
      1425   78.6300  1.257924    290.62    280.99      5.43
      1426   78.6800  1.257254    279.27    281.10      5.35
      1427   78.7300  1.256586    284.07    281.20      5.41
      1428   78.7800  1.255918    285.97    281.31      5.36
      1429   78.8300  1.255251    288.50    281.43      5.41
      1430   78.8800  1.254585    289.13    281.55      5.47
      1431   78.9300  1.253920    289.51    281.67      5.39
      1432   78.9800  1.253256    289.81    281.81      5.41
      1433   79.0300  1.252593    294.13    281.92      5.49
      1434   79.0800  1.251931    285.44    282.11      5.38
      1435   79.1300  1.251269    293.73    282.33      5.47
      1436   79.1800  1.250609    287.65    282.65      5.39
      1437   79.2300  1.249950    281.23    283.10      5.34
      1438   79.2800  1.249291    289.50    283.75      5.45
      1439   79.3300  1.248634    280.27    284.66      5.36
      1440   79.3800  1.247977    281.18    285.82      5.40
      1441   79.4300  1.247321    288.98    287.13      5.39
      1442   79.4800  1.246667    296.47    288.34      5.47
      1443   79.5300  1.246013    304.99    289.06      5.54
      1444   79.5800  1.245360    306.68    288.99      5.56
      1445   79.6300  1.244708    301.47    288.23      5.50
      1446   79.6800  1.244057    300.58    287.18      5.49
      1447   79.7300  1.243407    293.99    286.18      5.45
      1448   79.7800  1.242758    293.85    285.40      5.44
      1449   79.8300  1.242109    289.27    284.89      5.41
      1450   79.8800  1.241462    277.42    284.62      5.37
      1451   79.9300  1.240815    276.35    284.54      5.28
      1452   79.9800  1.240170    286.00    284.59      5.39
      1453   80.0300  1.239525    288.40    284.73      5.40
      1454   80.0800  1.238881    272.77    284.97      5.26
      1455   80.1300  1.238239    275.38    285.33      5.30
      1456   80.1800  1.237597    282.13    285.89      5.41
      1457   80.2300  1.236956    279.00    286.75      5.31
      1458   80.2800  1.236315    282.59    288.01      5.36
      1459   80.3300  1.235676    283.53    289.75      5.36
      1460   80.3800  1.235038    289.27    291.91      5.51
      1461   80.4300  1.234400    292.71    294.21      5.43
      1462   80.4800  1.233764    297.51    296.09      5.48
      1463   80.5300  1.233128    285.28    296.83      5.39
      1464   80.5800  1.232493    288.11    296.09      5.41
      1465   80.6300  1.231859    294.38    294.44      5.44
      1466   80.6800  1.231226    287.18    292.59      5.38
      1467   80.7300  1.230594    289.98    291.03      5.39
      1468   80.7800  1.229963    289.31    289.97      5.39
      1469   80.8300  1.229333    285.80    289.45      5.37
      1470   80.8800  1.228703    297.04    289.40      5.47
      1471   80.9300  1.228075    287.53    289.77      5.43
      1472   80.9800  1.227447    282.31    290.57      5.40
      1473   81.0300  1.226820    278.55    291.97      5.30
      1474   81.0800  1.226194    285.62    294.38      5.38
      1475   81.1300  1.225569    293.52    298.51      5.47
      1476   81.1800  1.224945    297.64    305.41      5.47
      1477   81.2300  1.224321    323.72    316.16      5.72
      1478   81.2800  1.223699    336.09    331.44      5.81
      1479   81.3300  1.223077    349.06    350.69      5.94
      1480   81.3800  1.222456    367.55    371.27      6.10
      1481   81.4300  1.221836    393.41    387.61      6.28
      1482   81.4800  1.221217    391.97    392.46      6.27
      1483   81.5300  1.220599    384.16    383.08      6.23
      1484   81.5800  1.219982    363.08    364.52      6.04
      1485   81.6300  1.219365    341.80    343.93      5.86
      1486   81.6800  1.218750    325.27    325.86      5.71
      1487   81.7300  1.218135    312.58    312.13      5.60
      1488   81.7800  1.217521    303.28    302.79      5.58
      1489   81.8300  1.216908    297.79    296.95      5.50
      1490   81.8800  1.216296    292.43    293.48      5.49
      1491   81.9300  1.215684    281.54    291.42      5.35
      1492   81.9800  1.215074    284.56    290.15      5.37
      1493   82.0300  1.214464    296.00    289.29      5.46
      1494   82.0800  1.213855    289.95    288.67      5.40
      1495   82.1300  1.213247    289.16    288.20      5.39
      1496   82.1800  1.212640    287.30    287.84      5.39
      1497   82.2300  1.212034    281.29    287.55      5.33
      1498   82.2800  1.211428    294.63    287.39      5.47
      1499   82.3300  1.210824    287.80    287.21      5.40
      1500   82.3800  1.210220    297.45    287.06      5.47
      1501   82.4300  1.209617    303.78    286.95      5.61
      1502   82.4800  1.209014    292.47    286.87      5.43
      1503   82.5300  1.208413    289.17    286.82      5.43
      1504   82.5800  1.207813    286.30    286.78      5.41
      1505   82.6300  1.207213    286.73    286.76      5.38
      1506   82.6800  1.206614    286.52    286.81      5.42
      1507   82.7300  1.206016    283.72    286.89      5.38
      1508   82.7800  1.205419    284.08    287.00      5.40
      1509   82.8300  1.204823    282.25    287.13      5.37
      1510   82.8800  1.204227    287.90    287.28      5.39
      1511   82.9300  1.203632    293.67    287.45      5.44
      1512   82.9800  1.203038    287.82    287.64      5.38
      1513   83.0300  1.202445    280.92    287.87      5.37
      1514   83.0800  1.201853    284.22    288.13      5.36
      1515   83.1300  1.201261    292.11    288.43      5.42
      1516   83.1800  1.200671    287.27    288.78      5.37
      1517   83.2300  1.200081    283.11    289.20      5.33
      1518   83.2800  1.199492    294.08    289.71      5.43
      1519   83.3300  1.198903    286.94    290.33      5.37
      1520   83.3800  1.198316    276.10    291.14      5.26
      1521   83.4300  1.197729    279.23    292.24      5.30
      1522   83.4800  1.197143    281.29    293.88      5.37
      1523   83.5300  1.196558    290.24    296.54      5.43
      1524   83.5800  1.195974    297.67    300.98      5.47
      1525   83.6300  1.195391    297.01    308.27      5.46
      1526   83.6800  1.194808    318.34    319.47      5.66
      1527   83.7300  1.194226    338.46    335.09      5.83
      1528   83.7800  1.193645    365.44    354.27      6.05
      1529   83.8300  1.193065    378.32    373.77      6.16
      1530   83.8800  1.192485    392.07    387.25      6.28
      1531   83.9300  1.191907    380.64    387.83      6.20
      1532   83.9800  1.191329    368.23    375.21      6.12
      1533   84.0300  1.190752    357.95    356.07      6.02
      1534   84.0800  1.190175    338.30    336.95      5.85
      1535   84.1300  1.189600    320.65    321.27      5.68
      1536   84.1800  1.189025    314.17    310.04      5.63
      1537   84.2300  1.188451    298.82    302.81      5.55
      1538   84.2800  1.187878    299.10    298.51      5.49
      1539   84.3300  1.187305    295.63    296.01      5.47
      1540   84.3800  1.186734    293.80    294.49      5.45
      1541   84.4300  1.186163    309.73    293.44      5.57
      1542   84.4800  1.185593    294.51    292.64      5.46
      1543   84.5300  1.185023    291.17    292.03      5.43
      1544   84.5800  1.184455    294.93    291.56      5.50
      1545   84.6300  1.183887    291.83    291.21      5.43
      1546   84.6800  1.183320    286.24    290.95      5.37
      1547   84.7300  1.182754    287.64    290.76      5.38
      1548   84.7800  1.182188    292.28    290.57      5.43
      1549   84.8300  1.181624    291.55    290.50      5.43
      1550   84.8800  1.181060    299.48    290.38      5.51
      1551   84.9300  1.180496    296.02    290.29      5.47
      1552   84.9800  1.179934    296.49    290.22      5.47
      1553   85.0300  1.179372    312.05    290.16      5.61
      1554   85.0800  1.178811    305.24    290.11      5.55
      1555   85.1300  1.178251    308.69    290.08      5.57
      1556   85.1800  1.177692    316.09    290.06      5.63
      1557   85.2300  1.177133    306.12    290.04      5.54
      1558   85.2800  1.176575    314.58    290.03      5.63
      1559   85.3300  1.176018    307.60    290.03      5.61
      1560   85.3800  1.175462    295.46    290.04      5.51
      1561   85.4300  1.174906    290.39    290.05      5.43
      1562   85.4800  1.174351    305.41    290.06      5.54
      1563   85.5300  1.173797    300.86    290.08      5.50
      1564   85.5800  1.173244    303.06    290.10      5.55
      1565   85.6300  1.172691    299.46    290.12      5.61
      1566   85.6800  1.172139    302.85    290.15      5.56
      1567   85.7300  1.171588    305.52    290.18      5.54
      1568   85.7800  1.171038    293.52    290.21      5.46
      1569   85.8300  1.170488    288.91    290.25      5.46
      1570   85.8800  1.169939    299.58    290.29      5.51
      1571   85.9300  1.169391    297.43    290.33      5.47
      1572   85.9800  1.168843    284.84    290.38      5.39
      1573   86.0300  1.168296    288.85    290.43      5.42
      1574   86.0800  1.167751    299.39    290.48      5.49
      1575   86.1300  1.167205    298.12    290.53      5.47
      1576   86.1800  1.166661    302.48    290.59      5.52
      1577   86.2300  1.166117    298.16    290.66      5.51
      1578   86.2800  1.165574    297.11    290.73      5.50
      1579   86.3300  1.165031    297.76    290.82      5.50
      1580   86.3800  1.164490    298.97    290.92      5.51
      1581   86.4300  1.163949    299.68    291.06      5.53
      1582   86.4800  1.163409    299.05    291.25      5.53
      1583   86.5300  1.162869    299.77    291.52      5.51
      1584   86.5800  1.162331    299.93    291.90      5.55
      1585   86.6300  1.161793    297.40    292.37      5.54
      1586   86.6800  1.161255    296.85    292.88      5.47
      1587   86.7300  1.160719    304.95    293.32      5.54
      1588   86.7800  1.160183    293.37    293.49      5.43
      1589   86.8300  1.159648    292.66    293.35      5.49
      1590   86.8800  1.159113    300.82    293.02      5.57
      1591   86.9300  1.158580    300.39    292.67      5.49
      1592   86.9800  1.158046    295.40    292.40      5.51
      1593   87.0300  1.157514    293.58    292.23      5.47
      1594   87.0800  1.156983    299.79    292.16      5.49
      1595   87.1300  1.156452    289.39    292.17      5.44
      1596   87.1800  1.155922    289.67    292.22      5.41
      1597   87.2300  1.155392    293.84    292.31      5.44
      1598   87.2800  1.154863    295.12    292.42      5.45
      1599   87.3300  1.154335    295.89    292.55      5.45
      1600   87.3800  1.153808    294.84    292.69      5.44
      1601   87.4300  1.153281    293.26    292.85      5.53
      1602   87.4800  1.152755    290.00    293.03      5.43
      1603   87.5300  1.152230    294.92    293.23      5.48
      1604   87.5800  1.151706    285.20    293.45      5.43
      1605   87.6300  1.151182    297.52    293.69      5.48
      1606   87.6800  1.150658    294.88    294.04      5.46
      1607   87.7300  1.150136    288.56    294.47      5.39
      1608   87.7800  1.149614    298.82    294.95      5.51
      1609   87.8300  1.149093    297.42    295.48      5.51
      1610   87.8800  1.148573    288.59    296.07      5.40
      1611   87.9300  1.148053    304.38    296.73      5.56
      1612   87.9800  1.147534    305.89    297.50      5.55
      1613   88.0300  1.147016    302.87    298.39      5.51
      1614   88.0800  1.146498    296.59    299.44      5.53
      1615   88.1300  1.145981    301.44    300.71      5.53
      1616   88.1800  1.145465    299.05    302.27      5.55
      1617   88.2300  1.144949    303.38    304.29      5.53
      1618   88.2800  1.144434    297.14    307.09      5.50
      1619   88.3300  1.143920    298.48    311.30      5.49
      1620   88.3800  1.143407    312.58    318.13      5.62
      1621   88.4300  1.142894    325.61    329.64      5.77
      1622   88.4800  1.142381    339.54    348.35      5.84
      1623   88.5300  1.141870    383.51    376.57      6.21
      1624   88.5800  1.141359    433.43    414.67      6.60
      1625   88.6300  1.140849    467.39    458.78      6.87
      1626   88.6800  1.140339    501.76    497.76      7.10
      1627   88.7300  1.139830    516.59    513.42      7.20
      1628   88.7800  1.139322    499.49    495.81      7.08
      1629   88.8300  1.138815    441.52    456.54      6.66
      1630   88.8800  1.138308    412.64    413.62      6.45
      1631   88.9300  1.137802    371.68    377.65      6.11
      1632   88.9800  1.137296    347.95    352.20      5.92
      1633   89.0300  1.136792    324.42    336.78      5.71
      1634   89.0800  1.136287    332.37    328.93      5.78
      1635   89.1300  1.135784    333.93    325.70      5.79
      1636   89.1800  1.135281    321.05    324.14      5.68
      1637   89.2300  1.134779    309.79    321.93      5.61
      1638   89.2800  1.134277    310.00    318.37      5.61
      1639   89.3300  1.133777    307.46    314.34      5.56
      1640   89.3800  1.133276    298.89    310.71      5.56
      1641   89.4300  1.132777    306.54    307.88      5.55
      1642   89.4800  1.132278    299.70    305.89      5.51
      1643   89.5300  1.131780    294.78    304.59      5.44
      1644   89.5800  1.131282    308.46    303.78      5.57
      1645   89.6300  1.130785    305.30    303.28      5.54
      1646   89.6800  1.130289    294.72    302.98      5.53
      1647   89.7300  1.129793    290.62    302.81      5.45
      1648   89.7800  1.129298    304.69    302.73      5.54
      1649   89.8300  1.128804    293.46    302.73      5.52
      1650   89.8800  1.128310    296.32    302.81      5.49
      1651   89.9300  1.127817    292.75    302.99      5.49
      1652   89.9800  1.127325    300.31    303.19      5.50
      1653   90.0300  1.126833    298.39    303.44      5.48
      1654   90.0800  1.126342    300.61    303.74      5.50
      1655   90.1300  1.125852    300.30    304.09      5.51
      1656   90.1800  1.125362    308.02    304.50      5.56
      1657   90.2300  1.124873    308.80    304.98      5.57
      1658   90.2800  1.124384    295.08    305.53      5.48
      1659   90.3300  1.123896    300.03    306.18      5.51
      1660   90.3800  1.123409    302.68    306.93      5.51
      1661   90.4300  1.122922    307.91    307.83      5.56
      1662   90.4800  1.122436    316.98    308.90      5.64
      1663   90.5300  1.121951    315.95    310.20      5.64
      1664   90.5800  1.121466    318.42    311.83      5.66
      1665   90.6300  1.120982    312.67    313.92      5.63
      1666   90.6800  1.120499    309.52    316.79      5.60
      1667   90.7300  1.120016    322.10    321.13      5.69
      1668   90.7800  1.119534    321.90    328.18      5.70
      1669   90.8300  1.119052    336.78    340.01      5.82
      1670   90.8800  1.118571    360.94    359.41      6.03
      1671   90.9300  1.118091    403.00    388.91      6.36
      1672   90.9800  1.117611    455.01    429.01      6.78
      1673   91.0300  1.117132    504.59    475.52      7.12
      1674   91.0800  1.116654    535.78    515.65      7.34
      1675   91.1300  1.116176    528.60    528.98      7.30
      1676   91.1800  1.115699    498.23    506.37      7.07
      1677   91.2300  1.115222    458.68    462.92      6.79
      1678   91.2800  1.114746    415.83    417.88      6.47
      1679   91.3300  1.114271    374.66    381.18      6.19
      1680   91.3800  1.113796    363.25    355.33      6.06
      1681   91.4300  1.113322    338.13    339.01      5.83
      1682   91.4800  1.112849    314.12    329.44      5.72
      1683   91.5300  1.112376    313.06    323.97      5.69
      1684   91.5800  1.111903    316.55    320.66      5.73
      1685   91.6300  1.111432    315.28    318.42      5.69
      1686   91.6800  1.110961    316.29    316.77      5.65
      1687   91.7300  1.110490    312.35    315.53      5.62
      1688   91.7800  1.110020    301.27    314.62      5.60
      1689   91.8300  1.109551    312.65    313.99      5.61
      1690   91.8800  1.109083    318.09    313.59      5.66
      1691   91.9300  1.108615    316.68    313.37      5.74
      1692   91.9800  1.108147    309.77    313.33      5.59
      1693   92.0300  1.107680    313.81    313.45      5.68
      1694   92.0800  1.107214    312.06    313.76      5.61
      1695   92.1300  1.106749    314.03    314.23      5.62
      1696   92.1800  1.106284    313.80    315.09      5.70
      1697   92.2300  1.105819    314.72    316.62      5.63
      1698   92.2800  1.105356    308.24    319.24      5.61
      1699   92.3300  1.104892    318.06    323.41      5.65
      1700   92.3800  1.104430    328.57    329.50      5.74
      1701   92.4300  1.103968    334.94    337.41      5.81
      1702   92.4800  1.103506    347.86    346.12      5.91
      1703   92.5300  1.103045    366.70    353.13      6.07
      1704   92.5800  1.102585    360.40    356.06      6.02
      1705   92.6300  1.102126    352.88    355.61      5.98
      1706   92.6800  1.101667    358.18    354.66      6.00
      1707   92.7300  1.101208    349.96    355.22      5.93
      1708   92.7800  1.100750    360.96    357.90      6.03
      1709   92.8300  1.100293    369.71    362.42      6.09
      1710   92.8800  1.099837    376.36    368.06      6.15
      1711   92.9300  1.099380    373.12    373.98      6.13
      1712   92.9800  1.098925    378.50    379.37      6.16
      1713   93.0300  1.098470    391.33    383.56      6.30
      1714   93.0800  1.098016    390.88    385.99      6.31
      1715   93.1300  1.097562    397.77    386.35      6.33
      1716   93.1800  1.097109    386.27    384.55      6.31
      1717   93.2300  1.096656    375.18    380.76      6.16
      1718   93.2800  1.096204    379.08    375.33      6.18
      1719   93.3300  1.095753    363.81    368.74      6.05
      1720   93.3800  1.095302    346.78    361.49      5.91
      1721   93.4300  1.094852    347.31    354.05      5.95
      1722   93.4800  1.094402    329.52    346.81      5.77
      1723   93.5300  1.093953    342.10    340.09      5.87
      1724   93.5800  1.093505    327.74    334.11      5.76
      1725   93.6300  1.093057    316.17    328.98      5.66
      1726   93.6800  1.092610    316.96    324.73      5.65
      1727   93.7300  1.092163    321.89    321.34      5.68
      1728   93.7800  1.091717    305.09    318.71      5.54
      1729   93.8300  1.091271    316.90    316.74      5.65
      1730   93.8800  1.090826    317.69    315.31      5.66
      1731   93.9300  1.090381    315.29    314.30      5.64
      1732   93.9800  1.089937    308.55    313.60      5.59
      1733   94.0300  1.089494    318.26    313.14      5.70
      1734   94.0800  1.089051    314.37    312.84      5.63
      1735   94.1300  1.088609    317.32    312.66      5.64
      1736   94.1800  1.088167    317.25    312.55      5.64
      1737   94.2300  1.087726    311.42    312.50      5.62
      1738   94.2800  1.087286    319.92    312.48      5.69
      1739   94.3300  1.086846    322.10    312.49      5.71
      1740   94.3800  1.086406    310.49    312.52      5.61
      1741   94.4300  1.085968    316.70    312.56      5.70
      1742   94.4800  1.085529    303.51    312.61      5.60
      1743   94.5300  1.085092    314.06    312.61      5.62
      1744   94.5800  1.084654    312.38    312.58      5.63
      1745   94.6300  1.084218    307.14    312.55      5.60
      1746   94.6800  1.083782    308.87    312.54      5.59
      1747   94.7300  1.083346    308.04    312.54      5.61
      1748   94.7800  1.082911    310.79    312.55      5.63
      1749   94.8300  1.082477    312.79    312.58      5.61
      1750   94.8800  1.082043    313.63    312.62      5.67
      1751   94.9300  1.081610    307.42    312.67      5.58
      1752   94.9800  1.081177    309.78    312.75      5.61
      1753   95.0300  1.080745    303.79    312.86      5.58
      1754   95.0800  1.080313    311.67    312.99      5.66
      1755   95.1300  1.079883    313.88    313.17      5.65
      1756   95.1800  1.079452    306.54    313.32      5.59
      1757   95.2300  1.079022    323.54    313.60      5.74
      1758   95.2800  1.078593    320.28    313.95      5.72
      1759   95.3300  1.078164    317.05    314.41      5.66
      1760   95.3800  1.077735    317.17    315.02      5.65
      1761   95.4300  1.077308    322.36    315.83      5.70
      1762   95.4800  1.076880    321.86    316.99      5.72
      1763   95.5300  1.076454    323.48    318.78      5.72
      1764   95.5800  1.076028    321.64    321.73      5.70
      1765   95.6300  1.075602    331.47    326.76      5.77
      1766   95.6800  1.075177    328.40    335.08      5.78
      1767   95.7300  1.074752    349.86    347.77      5.93
      1768   95.7800  1.074328    368.88    364.86      6.10
      1769   95.8300  1.073905    384.95    383.77      6.22
      1770   95.8800  1.073482    380.05    397.27      6.24
      1771   95.9300  1.073060    379.01    396.40      6.17
      1772   95.9800  1.072638    362.19    381.90      6.05
      1773   96.0300  1.072217    357.81    363.12      6.00
      1774   96.0800  1.071796    331.95    346.78      5.79
      1775   96.1300  1.071376    325.82    335.14      5.76
      1776   96.1800  1.070956    328.14    328.13      5.74
      1777   96.2300  1.070537    321.83    324.75      5.72
      1778   96.2800  1.070118    310.81    323.84      5.63
      1779   96.3300  1.069700    316.08    324.25      5.66
      1780   96.3800  1.069282    317.80    324.68      5.66
      1781   96.4300  1.068865    313.26    323.82      5.64
      1782   96.4800  1.068449    315.37    321.56      5.64
      1783   96.5300  1.068033    312.11    318.90      5.65
      1784   96.5800  1.067617    315.23    316.59      5.65
      1785   96.6300  1.067203    315.89    314.87      5.71
      1786   96.6800  1.066788    321.12    313.69      5.68
      1787   96.7300  1.066374    312.47    312.92      5.60
      1788   96.7800  1.065961    311.57    312.41      5.63
      1789   96.8300  1.065548    316.79    312.06      5.67
      1790   96.8800  1.065136    300.34    311.79      5.50
      1791   96.9300  1.064724    305.82    311.59      5.56
      1792   96.9800  1.064313    314.43    311.43      5.65
      1793   97.0300  1.063902    306.60    311.30      5.61
      1794   97.0800  1.063492    308.88    311.19      5.57
      1795   97.1300  1.063082    314.85    311.12      5.64
      1796   97.1800  1.062673    311.63    311.06      5.67
      1797   97.2300  1.062264    306.87    311.02      5.59
      1798   97.2800  1.061856    312.44    311.02      5.62
      1799   97.3300  1.061448    309.27    311.03      5.61
      1800   97.3800  1.061041    314.49    311.07      5.64
      1801   97.4300  1.060635    312.01    311.06      5.61
      1802   97.4800  1.060228    313.33    311.15      5.63
      1803   97.5300  1.059823    304.27    311.28      5.68
      1804   97.5800  1.059418    307.79    311.45      5.69
      1805   97.6300  1.059013    306.26    311.68      5.59
      1806   97.6800  1.058609    316.80    311.98      5.66
      1807   97.7300  1.058206    322.39    312.40      5.70
      1808   97.7800  1.057803    308.22    312.94      5.57
      1809   97.8300  1.057400    305.52    313.69      5.65
      1810   97.8800  1.056998    305.47    314.77      5.57
      1811   97.9300  1.056597    321.34    316.40      5.68
      1812   97.9800  1.056195    323.16    319.03      5.73
      1813   98.0300  1.055795    320.40    323.35      5.78
      1814   98.0800  1.055395    328.69    330.34      5.90
      1815   98.1300  1.054996    342.90    340.86      5.88
      1816   98.1800  1.054597    344.80    354.99      5.93
      1817   98.2300  1.054198    363.16    370.64      6.04
      1818   98.2800  1.053800    367.36    381.77      6.07
      1819   98.3300  1.053403    366.84    381.76      6.07
      1820   98.3800  1.053006    363.25    372.57      6.06
      1821   98.4300  1.052609    358.32    361.49      6.04
      1822   98.4800  1.052213    352.61    352.68      6.01
      1823   98.5300  1.051818    344.35    347.03      5.89
      1824   98.5800  1.051423    348.51    343.94      5.93
      1825   98.6300  1.051028    345.08    342.41      5.92
      1826   98.6800  1.050634    344.39    341.59      5.88
      1827   98.7300  1.050241    356.61    340.87      5.98
      1828   98.7800  1.049848    348.73    339.65      5.92
      1829   98.8300  1.049455    343.95    337.24      5.89
      1830   98.8800  1.049063    330.97    333.43      5.80
      1831   98.9300  1.048672    327.72    329.02      5.78
      1832   98.9800  1.048281    317.11    324.82      5.68
      1833   99.0300  1.047890    319.08    321.22      5.69
      1834   99.0800  1.047500    314.77    318.28      5.66
      1835   99.1300  1.047110    314.03    315.96      5.62
      1836   99.1800  1.046721    314.59    314.16      5.63
      1837   99.2300  1.046333    314.86    312.79      5.66
      1838   99.2800  1.045945    306.22    311.75      5.55
      1839   99.3300  1.045557    309.01    310.98      5.58
      1840   99.3800  1.045170    307.53    310.42      5.59
      1841   99.4300  1.044783    315.02    310.00      5.69
      1842   99.4800  1.044397    315.66    309.69      5.71
      1843   99.5300  1.044011    317.11    309.45      5.75
      1844   99.5800  1.043626    313.42    309.27      5.66
      1845   99.6300  1.043242    306.28    309.12      5.55
      1846   99.6800  1.042857    309.26    309.00      5.59
      1847   99.7300  1.042474    309.61    308.89      5.63
      1848   99.7800  1.042090    304.94    308.80      5.59
      1849   99.8300  1.041708    309.33    308.72      5.64
      1850   99.8800  1.041325    308.56    308.62      5.59
      1851   99.9300  1.040943    317.82    308.52      5.68
      1852   99.9800  1.040562    316.11    308.42      5.72
      1853  100.0300  1.040181    309.16    308.32      5.64
      1854  100.0800  1.039801    306.06    308.23      5.57
      1855  100.1300  1.039421    305.23    308.14      5.58
      1856  100.1800  1.039041    301.11    308.06      5.54
      1857  100.2300  1.038662    310.04    307.98      5.58
      1858  100.2800  1.038284    310.55    307.90      5.60
      1859  100.3300  1.037906    306.27    307.82      5.55
      1860  100.3800  1.037528    310.10    307.74      5.63
      1861  100.4300  1.037151    309.69    307.70      5.58
      1862  100.4800  1.036775    306.82    307.63      5.59
      1863  100.5300  1.036399    309.59    307.55      5.67
      1864  100.5800  1.036023    303.79    307.48      5.54
      1865  100.6300  1.035648    298.76    307.42      5.50
      1866  100.6800  1.035273    315.51    307.35      5.64
      1867  100.7300  1.034899    317.50    307.28      5.65
      1868  100.7800  1.034525    308.91    307.21      5.59
      1869  100.8300  1.034152    307.98    307.15      5.63
      1870  100.8800  1.033779    313.95    307.09      5.64
      1871  100.9300  1.033406    298.64    307.02      5.50
      1872  100.9800  1.033034    298.24    306.96      5.52
      1873  101.0300  1.032663    300.35    306.90      5.49
      1874  101.0800  1.032292    308.25    306.84      5.56
      1875  101.1300  1.031921    311.34    306.78      5.59
      1876  101.1800  1.031551    294.42    306.72      5.47
      1877  101.2300  1.031182    294.89    306.66      5.47
      1878  101.2800  1.030813    308.37    306.61      5.57
      1879  101.3300  1.030444    307.91    306.55      5.58
      1880  101.3800  1.030076    311.92    306.49      5.59
      1881  101.4300  1.029708    300.11    306.44      5.49
      1882  101.4800  1.029340    294.92    306.38      5.49
      1883  101.5300  1.028974    301.48    306.33      5.54
      1884  101.5800  1.028607    301.70    306.27      5.55
      1885  101.6300  1.028241    311.68    306.22      5.60
      1886  101.6800  1.027876    305.65    306.17      5.59
      1887  101.7300  1.027511    307.12    306.12      5.57
      1888  101.7800  1.027146    305.24    306.08      5.53
      1889  101.8300  1.026782    299.45    306.03      5.48
      1890  101.8800  1.026418    303.54    305.98      5.54
      1891  101.9300  1.026055    310.84    305.91      5.59
      1892  101.9800  1.025692    311.79    305.87      5.62
      1893  102.0300  1.025330    307.33    305.83      5.59
      1894  102.0800  1.024968    301.90    305.80      5.54
      1895  102.1300  1.024607    300.86    305.76      5.52
      1896  102.1800  1.024246    292.05    305.74      5.45
      1897  102.2300  1.023885    303.98    305.73      5.59
      1898  102.2800  1.023525    305.08    305.72      5.57
      1899  102.3300  1.023166    313.96    305.72      5.63
      1900  102.3800  1.022806    303.69    305.73      5.56
      1901  102.4300  1.022448    306.94    305.75      5.61
      1902  102.4800  1.022089    311.26    305.79      5.64
      1903  102.5300  1.021732    301.69    305.84      5.57
      1904  102.5800  1.021374    305.06    305.92      5.57
      1905  102.6300  1.021017    300.22    306.03      5.51
      1906  102.6800  1.020661    307.16    306.20      5.56
      1907  102.7300  1.020305    308.17    306.43      5.57
      1908  102.7800  1.019949    304.61    306.77      5.57
      1909  102.8300  1.019594    300.39    307.32      5.55
      1910  102.8800  1.019239    297.80    308.24      5.49
      1911  102.9300  1.018885    311.88    309.83      5.63
      1912  102.9800  1.018531    320.16    312.47      5.68
      1913  103.0300  1.018178    320.74    316.46      5.70
      1914  103.0800  1.017825    325.56    321.63      5.74
      1915  103.1300  1.017472    329.47    326.30      5.78
      1916  103.1800  1.017120    336.75    327.25      5.81
      1917  103.2300  1.016768    323.98    323.52      5.70
      1918  103.2800  1.016417    320.28    318.19      5.69
      1919  103.3300  1.016066    312.95    313.63      5.62
      1920  103.3800  1.015716    310.21    310.45      5.67
      1921  103.4300  1.015366    311.98    308.46      5.65
      1922  103.4800  1.015017    307.82    307.27      5.62
      1923  103.5300  1.014668    305.42    306.56      5.67
      1924  103.5800  1.014319    303.00    306.09      5.62
      1925  103.6300  1.013971    304.91    305.77      5.55
      1926  103.6800  1.013623    315.77    305.54      5.66
      1927  103.7300  1.013276    306.86    305.37      5.58
      1928  103.7800  1.012929    296.64    305.25      5.51
      1929  103.8300  1.012582    298.37    305.16      5.57
      1930  103.8800  1.012236    303.35    305.11      5.52
      1931  103.9300  1.011891    300.04    305.08      5.48
      1932  103.9800  1.011545    315.02    305.09      5.63
      1933  104.0300  1.011201    301.55    305.13      5.52
      1934  104.0800  1.010856    304.12    305.21      5.53
      1935  104.1300  1.010512    312.45    305.33      5.68
      1936  104.1800  1.010169    306.58    305.51      5.59
      1937  104.2300  1.009826    294.03    305.82      5.50
      1938  104.2800  1.009483    314.37    306.26      5.65
      1939  104.3300  1.009141    299.86    306.92      5.54
      1940  104.3800  1.008799    311.27    307.96      5.59
      1941  104.4300  1.008458    313.92    309.69      5.64
      1942  104.4800  1.008117    313.03    312.56      5.62
      1943  104.5300  1.007777    314.57    317.03      5.64
      1944  104.5800  1.007437    331.32    323.12      5.78
      1945  104.6300  1.007097    319.39    329.38      5.68
      1946  104.6800  1.006758    328.88    332.29      5.76
      1947  104.7300  1.006419    323.94    329.55      5.71
      1948  104.7800  1.006081    329.15    323.43      5.78
      1949  104.8300  1.005743    319.39    317.50      5.68
      1950  104.8800  1.005405    306.62    313.21      5.56
      1951  104.9300  1.005068    309.35    310.53      5.58
      1952  104.9800  1.004731    321.91    309.04      5.72
      1953  105.0300  1.004395    311.53    308.27      5.66
      1954  105.0800  1.004059    307.16    307.96      5.65
      1955  105.1300  1.003723    309.90    307.95      5.58
      1956  105.1800  1.003388    307.38    308.19      5.59
      1957  105.2300  1.003054    312.69    308.70      5.65
      1958  105.2800  1.002720    315.56    309.55      5.63
      1959  105.3300  1.002386    315.40    310.95      5.65
      1960  105.3800  1.002052    316.86    313.30      5.71
      1961  105.4300  1.001719    319.90    317.31      5.75
      1962  105.4800  1.001387    326.08    324.08      5.72
      1963  105.5300  1.001055    344.26    334.67      5.88
      1964  105.5800  1.000723    352.79    348.96      5.99
      1965  105.6300  1.000391    364.74    362.53      6.11
      1966  105.6800  1.000060    347.06    365.43      5.90
      1967  105.7300  0.999730    350.80    354.96      5.93
      1968  105.7800  0.999400    339.86    340.23      5.86
      1969  105.8300  0.999070    335.66    328.15      5.82
      1970  105.8800  0.998741    330.19    320.15      5.80
      1971  105.9300  0.998412    319.06    315.49      5.67
      1972  105.9800  0.998083    318.73    313.27      5.67
      1973  106.0300  0.997755    309.40    312.58      5.57
      1974  106.0800  0.997428    317.92    313.13      5.66
      1975  106.1300  0.997100    318.32    314.48      5.68
      1976  106.1800  0.996773    309.74    315.53      5.58
      1977  106.2300  0.996447    312.34    314.74      5.61
      1978  106.2800  0.996121    311.76    312.42      5.60
      1979  106.3300  0.995795    309.34    310.01      5.59
      1980  106.3800  0.995470    308.04    308.19      5.66
      1981  106.4300  0.995145    317.41    306.99      5.72
      1982  106.4800  0.994821    309.72    306.23      5.60
      1983  106.5300  0.994497    302.65    305.75      5.54
      1984  106.5800  0.994173    307.55    305.43      5.57
      1985  106.6300  0.993850    311.96    305.20      5.63
      1986  106.6800  0.993527    311.62    305.05      5.63
      1987  106.7300  0.993204    308.97    304.93      5.58
      1988  106.7800  0.992882    305.08    304.85      5.56
      1989  106.8300  0.992561    300.73    304.80      5.50
      1990  106.8800  0.992239    307.26    304.78      5.58
      1991  106.9300  0.991919    304.43    304.78      5.57
      1992  106.9800  0.991598    301.81    304.80      5.56
      1993  107.0300  0.991278    296.19    304.84      5.51
      1994  107.0800  0.990958    298.57    304.90      5.55
      1995  107.1300  0.990639    307.38    304.99      5.62
      1996  107.1800  0.990320    298.68    305.10      5.54
      1997  107.2300  0.990002    309.07    305.24      5.57
      1998  107.2800  0.989684    310.92    305.47      5.63
      1999  107.3300  0.989366    314.67    305.78      5.65
      2000  107.3800  0.989049    299.54    306.15      5.49
      2001  107.4300  0.988732    291.93    306.57      5.43
      2002  107.4800  0.988415    296.96    307.08      5.50
      2003  107.5300  0.988099    307.64    307.68      5.58
      2004  107.5800  0.987783    305.74    308.42      5.63
      2005  107.6300  0.987468    305.29    309.34      5.59
      2006  107.6800  0.987153    309.77    310.50      5.62
      2007  107.7300  0.986838    300.33    312.01      5.52
      2008  107.7800  0.986524    312.22    314.02      5.63
      2009  107.8300  0.986210    317.46    316.85      5.71
      2010  107.8800  0.985897    316.15    321.04      5.68
      2011  107.9300  0.985584    333.17    327.70      5.83
      2012  107.9800  0.985271    343.82    338.79      5.89
      2013  108.0300  0.984959    369.71    357.04      6.12
      2014  108.0800  0.984647    394.18    384.83      6.29
      2015  108.1300  0.984336    415.43    419.21      6.46
      2016  108.1800  0.984024    408.25    441.52      6.41
      2017  108.2300  0.983714    412.07    430.44      6.46
      2018  108.2800  0.983403    383.50    398.12      6.25
      2019  108.3300  0.983093    368.31    367.26      6.10
      2020  108.3800  0.982784    353.18    345.67      6.00
      2021  108.4300  0.982475    333.48    332.30      5.81
      2022  108.4800  0.982166    330.37    324.34      5.84
      2023  108.5300  0.981857    314.92    319.52      5.64
      2024  108.5800  0.981549    303.45    316.44      5.56
      2025  108.6300  0.981242    309.92    314.34      5.58
      2026  108.6800  0.980934    317.21    312.83      5.70
      2027  108.7300  0.980627    311.47    311.70      5.62
      2028  108.7800  0.980321    302.73    310.85      5.51
      2029  108.8300  0.980015    310.83    310.21      5.60
      2030  108.8800  0.979709    313.69    309.72      5.63
      2031  108.9300  0.979403    320.69    309.35      5.74
      2032  108.9800  0.979098    312.25    309.07      5.63
      2033  109.0300  0.978794    317.78    308.86      5.68
      2034  109.0800  0.978490    306.85    308.71      5.64
      2035  109.1300  0.978186    300.64    308.60      5.67
      2036  109.1800  0.977882    314.22    308.53      5.67
      2037  109.2300  0.977579    309.12    308.50      5.64
      2038  109.2800  0.977276    314.17    308.49      5.67
      2039  109.3300  0.976974    316.19    308.51      5.68
      2040  109.3800  0.976672    317.64    308.45      5.66
      2041  109.4300  0.976370    316.36    308.42      5.68
      2042  109.4800  0.976069    304.50    308.42      5.57
      2043  109.5300  0.975768    315.55    308.43      5.65
      2044  109.5800  0.975467    315.67    308.47      5.66
      2045  109.6300  0.975167    302.23    308.53      5.54
      2046  109.6800  0.974867    306.22    308.61      5.59
      2047  109.7300  0.974568    312.66    308.73      5.62
      2048  109.7800  0.974269    310.01    308.88      5.59
      2049  109.8300  0.973970    311.42    309.06      5.61
      2050  109.8800  0.973672    304.67    309.29      5.59
      2051  109.9300  0.973374    294.92    309.58      5.48
      2052  109.9800  0.973076    295.85    309.94      5.47
      2053  110.0300  0.972779    306.63    310.38      5.57
      2054  110.0800  0.972482    305.16    310.93      5.57
      2055  110.1300  0.972186    312.32    311.63      5.63
      2056  110.1800  0.971890    304.46    312.53      5.62
      2057  110.2300  0.971594    316.54    313.71      5.70
      2058  110.2800  0.971298    315.79    315.26      5.66
      2059  110.3300  0.971003    320.07    317.37      5.70
      2060  110.3800  0.970709    319.50    320.33      5.70
      2061  110.4300  0.970414    328.27    324.67      5.76
      2062  110.4800  0.970120    336.82    331.40      5.88
      2063  110.5300  0.969827    349.17    342.38      5.92
      2064  110.5800  0.969534    370.44    360.69      6.13
      2065  110.6300  0.969241    399.67    390.07      6.36
      2066  110.6800  0.968948    432.84    429.78      6.61
      2067  110.7300  0.968656    438.28    459.36      6.64
      2068  110.7800  0.968364    425.60    449.05      6.54
      2069  110.8300  0.968073    405.23    411.74      6.38
      2070  110.8800  0.967782    381.03    376.23      6.18
      2071  110.9300  0.967491    356.90    352.09      6.00
      2072  110.9800  0.967201    342.65    337.40      5.90
      2073  111.0300  0.966911    328.98    328.70      5.78
      2074  111.0800  0.966621    327.46    323.52      5.86
      2075  111.1300  0.966332    318.77    320.48      5.69
      2076  111.1800  0.966043    326.05    318.64      5.76
      2077  111.2300  0.965755    308.04    316.98      5.61
      2078  111.2800  0.965466    308.29    315.03      5.68
      2079  111.3300  0.965179    316.36    313.17      5.64
      2080  111.3800  0.964891    306.85    311.72      5.57
      2081  111.4300  0.964604    307.93    310.66      5.67
      2082  111.4800  0.964317    304.64    309.87      5.63
      2083  111.5300  0.964031    314.57    309.27      5.67
      2084  111.5800  0.963745    313.61    308.79      5.65
      2085  111.6300  0.963459    311.71    308.40      5.70
      2086  111.6800  0.963174    315.82    308.07      5.77
      2087  111.7300  0.962889    309.85    307.80      5.66
      2088  111.7800  0.962604    305.12    307.57      5.56
      2089  111.8300  0.962320    308.40    307.36      5.59
      2090  111.8800  0.962036    307.41    307.18      5.56
      2091  111.9300  0.961752    303.35    307.03      5.53
      2092  111.9800  0.961469    300.74    306.89      5.55
      2093  112.0300  0.961186    301.12    306.76      5.54
      2094  112.0800  0.960903    303.21    306.65      5.61
      2095  112.1300  0.960621    301.88    306.55      5.53
      2096  112.1800  0.960339    294.73    306.46      5.49
      2097  112.2300  0.960058    308.43    306.37      5.56
      2098  112.2800  0.959777    312.91    306.30      5.60
      2099  112.3300  0.959496    317.34    306.23      5.65
      2100  112.3800  0.959216    308.44    306.16      5.65
      2101  112.4300  0.958935    305.83    306.10      5.61
      2102  112.4800  0.958656    318.56    306.04      5.69
      2103  112.5300  0.958376    304.99    305.99      5.67
      2104  112.5800  0.958097    310.61    305.94      5.60
      2105  112.6300  0.957818    309.96    305.89      5.61
      2106  112.6800  0.957540    310.98    305.84      5.64
      2107  112.7300  0.957262    303.63    305.85      5.57
      2108  112.7800  0.956984    310.50    305.89      5.61
      2109  112.8300  0.956707    302.21    305.94      5.61
      2110  112.8800  0.956430    309.75    305.99      5.59
      2111  112.9300  0.956153    297.57    306.04      5.48
      2112  112.9800  0.955877    298.70    306.08      5.55
      2113  113.0300  0.955601    298.78    306.14      5.56
      2114  113.0800  0.955325    308.58    306.26      5.61
      2115  113.1300  0.955050    297.56    306.32      5.50
      2116  113.1800  0.954775    304.22    306.37      5.54
      2117  113.2300  0.954500    315.46    306.43      5.67
      2118  113.2800  0.954226    319.31    306.42      5.74
      2119  113.3300  0.953952    313.36    306.48      5.68
      2120  113.3800  0.953678    310.39    306.54      5.64
      2121  113.4300  0.953405    310.25    306.60      5.60
      2122  113.4800  0.953132    304.81    306.66      5.59
      2123  113.5300  0.952860    307.42    306.73      5.58
      2124  113.5800  0.952587    301.61    306.79      5.53
      2125  113.6300  0.952315    308.97    306.85      5.60
      2126  113.6800  0.952044    322.17    306.92      5.72
      2127  113.7300  0.951772    314.71    306.98      5.65
      2128  113.7800  0.951502    320.16    307.05      5.70
      2129  113.8300  0.951231    310.35    307.11      5.63
      2130  113.8800  0.950961    314.54    307.18      5.64
      2131  113.9300  0.950691    315.37    307.25      5.72
      2132  113.9800  0.950421    304.87    307.31      5.62
      2133  114.0300  0.950152    305.50    307.38      5.63
      2134  114.0800  0.949883    302.73    307.45      5.58
      2135  114.1300  0.949615    310.33    307.52      5.60
      2136  114.1800  0.949346    318.64    307.59      5.68
      2137  114.2300  0.949078    317.99    307.65      5.69
      2138  114.2800  0.948811    313.26    307.72      5.66
      2139  114.3300  0.948544    315.78    307.79      5.71
      2140  114.3800  0.948277    303.09    307.86      5.64
      2141  114.4300  0.948010    309.23    307.93      5.65
      2142  114.4800  0.947744    310.39    308.00      5.65
      2143  114.5300  0.947478    312.87    308.07      5.63
      2144  114.5800  0.947212    320.44    308.14      5.68
      2145  114.6300  0.946947    308.65    308.21      5.64
      2146  114.6800  0.946682    307.14    308.29      5.70
      2147  114.7300  0.946417    312.31    308.36      5.61
      2148  114.7800  0.946153    318.85    308.43      5.68
      2149  114.8300  0.945889    299.18    308.50      5.51
      2150  114.8800  0.945626    299.50    308.58      5.51
      2151  114.9300  0.945362    308.21    308.65      5.58
      2152  114.9800  0.945099    306.30    308.72      5.69
      2153  115.0300  0.944837    314.34    308.80      5.66
      2154  115.0800  0.944574    310.39    308.87      5.62
      2155  115.1300  0.944312    322.78    308.94      5.71
      2156  115.1800  0.944051    318.49    309.02      5.70
      2157  115.2300  0.943789    318.02    309.09      5.66
      2158  115.2800  0.943528    310.24    309.17      5.65
      2159  115.3300  0.943268    311.37    309.24      5.67
      2160  115.3800  0.943007    300.38    309.38      5.64
      2161  115.4300  0.942747    315.96    309.46      5.74
      2162  115.4800  0.942487    302.01    309.54      5.73
      2163  115.5300  0.942228    301.75    309.61      5.64
      2164  115.5800  0.941969    309.09    309.61      5.61
      2165  115.6300  0.941710    317.65    309.69      5.67
      2166  115.6800  0.941452    317.24    309.77      5.71
      2167  115.7300  0.941194    307.60    309.86      5.60
      2168  115.7800  0.940936    308.62    309.95      5.62
      2169  115.8300  0.940678    306.38    310.04      5.57
      2170  115.8800  0.940421    303.65    310.13      5.54
      2171  115.9300  0.940164    318.28    310.22      5.67
      2172  115.9800  0.939908    312.73    310.32      5.60
      2173  116.0300  0.939651    310.73    310.42      5.59
      2174  116.0800  0.939396    314.13    310.52      5.64
      2175  116.1300  0.939140    306.84    310.64      5.62
      2176  116.1800  0.938885    311.07    310.77      5.64
      2177  116.2300  0.938630    313.99    310.93      5.67
      2178  116.2800  0.938375    309.32    311.14      5.69
      2179  116.3300  0.938121    307.21    311.41      5.57
      2180  116.3800  0.937867    303.46    311.76      5.53
      2181  116.4300  0.937613    307.92    312.15      5.60
      2182  116.4800  0.937360    317.01    312.38      5.67
      2183  116.5300  0.937107    310.54    312.33      5.61
      2184  116.5800  0.936854    313.83    312.15      5.64
      2185  116.6300  0.936602    314.16    311.99      5.67
      2186  116.6800  0.936350    308.60    311.91      5.61
      2187  116.7300  0.936098    301.24    311.89      5.59
      2188  116.7800  0.935846    304.87    311.93      5.55
      2189  116.8300  0.935595    308.38    311.99      5.59
      2190  116.8800  0.935344    311.49    312.07      5.67
      2191  116.9300  0.935094    315.33    312.17      5.65
      2192  116.9800  0.934844    310.60    312.30      5.66
      2193  117.0300  0.934594    307.76    312.44      5.64
      2194  117.0800  0.934344    307.73    312.58      5.68
      2195  117.1300  0.934095    311.80    312.73      5.63
      2196  117.1800  0.933846    313.94    312.89      5.62
      2197  117.2300  0.933597    305.52    313.06      5.59
      2198  117.2800  0.933349    306.07    313.24      5.59
      2199  117.3300  0.933101    301.04    313.43      5.53
      2200  117.3800  0.932853    315.63    313.63      5.64
      2201  117.4300  0.932606    312.49    313.84      5.60
      2202  117.4800  0.932359    313.92    314.07      5.62
      2203  117.5300  0.932112    321.50    314.31      5.69
      2204  117.5800  0.931865    322.73    314.58      5.70
      2205  117.6300  0.931619    312.96    314.86      5.65
      2206  117.6800  0.931373    314.09    315.18      5.65
      2207  117.7300  0.931128    324.55    315.54      5.71
      2208  117.7800  0.930882    310.36    315.95      5.62
      2209  117.8300  0.930637    311.70    316.40      5.70
      2210  117.8800  0.930393    319.28    316.92      5.67
      2211  117.9300  0.930148    316.75    317.52      5.66
      2212  117.9800  0.929904    320.59    318.23      5.68
      2213  118.0300  0.929661    326.45    319.09      5.77
      2214  118.0800  0.929417    327.61    320.13      5.83
      2215  118.1300  0.929174    328.45    321.43      5.77
      2216  118.1800  0.928931    319.96    323.10      5.74
      2217  118.2300  0.928689    312.17    325.30      5.71
      2218  118.2800  0.928446    324.04    328.32      5.71
      2219  118.3300  0.928205    329.02    332.69      5.78
      2220  118.3800  0.927963    339.86    339.33      5.87
      2221  118.4300  0.927722    346.54    349.69      5.92
      2222  118.4800  0.927481    365.60    365.67      6.07
      2223  118.5300  0.927240    392.19    388.89      6.30
      2224  118.5800  0.927000    406.30    417.61      6.40
      2225  118.6300  0.926759    412.98    440.49      6.44
      2226  118.6800  0.926520    421.57    440.97      6.50
      2227  118.7300  0.926280    429.41    420.21      6.57
      2228  118.7800  0.926041    396.31    393.01      6.31
      2229  118.8300  0.925802    378.46    369.74      6.16
      2230  118.8800  0.925563    361.75    353.32      6.10
      2231  118.9300  0.925325    341.75    342.76      5.91
      2232  118.9800  0.925087    333.71    336.29      5.81
      2233  119.0300  0.924849    333.37    332.44      5.84
      2234  119.0800  0.924612    327.32    330.12      5.82
      2235  119.1300  0.924375    326.86    328.44      5.82
      2236  119.1800  0.924138    317.75    326.76      5.68
      2237  119.2300  0.923901    306.14    325.07      5.60
      2238  119.2800  0.923665    329.79    323.59      5.77
      2239  119.3300  0.923429    327.32    322.43      5.75
      2240  119.3800  0.923194    323.60    321.58      5.75
      2241  119.4300  0.922958    327.35    320.96      5.78
      2242  119.4800  0.922723    321.75    320.51      5.74
      2243  119.5300  0.922489    317.70    320.19      5.69
      2244  119.5800  0.922254    322.66    319.96      5.72
      2245  119.6300  0.922020    322.04    319.79      5.71
      2246  119.6800  0.921786    318.34    319.67      5.70
      2247  119.7300  0.921552    324.72    319.60      5.71
      2248  119.7800  0.921319    319.64    319.55      5.66
      2249  119.8300  0.921086    318.53    319.54      5.70
      2250  119.8800  0.920854    316.57    319.56      5.75
      2251  119.9300  0.920621    324.65    319.59      5.73
      2252  119.9800  0.920389    321.23    319.65      5.70
      2253  120.0300  0.920157    318.86    319.73      5.72
      2254  120.0800  0.919926    318.91    319.83      5.72
      2255  120.1300  0.919695    315.29    319.94      5.66
      2256  120.1800  0.919464    319.96    320.08      5.72
      2257  120.2300  0.919233    320.42    320.24      5.71
      2258  120.2800  0.919003    319.08    320.42      5.70
      2259  120.3300  0.918773    316.40    320.62      5.70
      2260  120.3800  0.918543    315.21    320.81      5.68
      2261  120.4300  0.918313    317.32    321.01      5.68
      2262  120.4800  0.918084    322.93    321.26      5.69
      2263  120.5300  0.917855    323.54    321.54      5.72
      2264  120.5800  0.917627    310.39    321.88      5.63
      2265  120.6300  0.917398    318.87    322.28      5.69
      2266  120.6800  0.917170    331.57    322.77      5.80
      2267  120.7300  0.916942    323.94    323.35      5.71
      2268  120.7800  0.916715    324.89    324.07      5.75
      2269  120.8300  0.916488    324.72    324.97      5.74
      2270  120.8800  0.916261    328.43    326.11      5.74
      2271  120.9300  0.916034    325.22    327.60      5.77
      2272  120.9800  0.915808    329.37    329.59      5.79
      2273  121.0300  0.915582    339.63    332.39      5.88
      2274  121.0800  0.915356    326.81    336.51      5.77
      2275  121.1300  0.915131    338.29    342.78      5.84
      2276  121.1800  0.914906    349.75    352.36      5.93
      2277  121.2300  0.914681    354.17    366.56      5.96
      2278  121.2800  0.914456    365.60    386.04      6.06
      2279  121.3300  0.914232    398.77    408.53      6.33
      2280  121.3800  0.914008    414.24    425.36      6.49
      2281  121.4300  0.913784    413.39    425.75      6.48
      2282  121.4800  0.913561    402.11    410.56      6.36
      2283  121.5300  0.913337    394.89    389.47      6.30
      2284  121.5800  0.913114    377.17    370.05      6.15
      2285  121.6300  0.912892    363.68    355.33      6.06
      2286  121.6800  0.912669    352.10    345.26      5.99
      2287  121.7300  0.912447    353.12    338.69      5.98
      2288  121.7800  0.912226    339.99    334.49      5.90
      2289  121.8300  0.912004    331.08    331.82      5.80
      2290  121.8800  0.911783    332.57    330.22      5.78
      2291  121.9300  0.911562    328.14    329.50      5.82
      2292  121.9800  0.911341    333.96    329.73      5.84
      2293  122.0300  0.911121    339.99    331.10      5.94
      2294  122.0800  0.910901    332.02    333.82      5.85
      2295  122.1300  0.910681    339.89    337.83      5.87
      2296  122.1800  0.910462    340.05    342.55      5.87
      2297  122.2300  0.910242    341.15    346.66      5.88
      2298  122.2800  0.910023    341.52    348.25      5.93
      2299  122.3300  0.909805    347.55    346.40      5.91
      2300  122.3800  0.909586    352.40    342.06      5.95
      2301  122.4300  0.909368    340.16    336.88      5.85
      2302  122.4800  0.909150    331.03    332.16      5.91
      2303  122.5300  0.908933    331.90    328.51      5.85
      2304  122.5800  0.908715    326.84    326.03      5.79
      2305  122.6300  0.908498    326.69    324.48      5.79
      2306  122.6800  0.908282    327.28    323.57      5.78
      2307  122.7300  0.908065    317.01    323.03      5.74
      2308  122.7800  0.907849    322.40    322.70      5.72
      2309  122.8300  0.907633    332.94    322.49      5.83
      2310  122.8800  0.907417    327.98    322.34      5.75
      2311  122.9300  0.907202    324.15    322.24      5.79
      2312  122.9800  0.906987    321.52    322.20      5.78
      2313  123.0300  0.906772    325.03    322.17      5.73
      2314  123.0800  0.906557    335.77    322.15      5.84
      2315  123.1300  0.906343    327.24    322.16      5.83
      2316  123.1800  0.906129    324.05    322.18      5.73
      2317  123.2300  0.905915    324.95    322.23      5.80
      2318  123.2800  0.905702    329.96    322.30      5.79
      2319  123.3300  0.905489    323.27    322.39      5.78
      2320  123.3800  0.905276    321.96    322.50      5.76
      2321  123.4300  0.905063    315.23    322.65      5.73
      2322  123.4800  0.904851    309.97    322.83      5.70
      2323  123.5300  0.904639    317.70    323.05      5.70
      2324  123.5800  0.904427    319.60    323.32      5.70
      2325  123.6300  0.904215    329.05    323.66      5.76
      2326  123.6800  0.904004    327.32    324.08      5.77
      2327  123.7300  0.903793    323.76    324.64      5.79
      2328  123.7800  0.903582    328.54    325.37      5.77
      2329  123.8300  0.903372    334.26    326.39      5.84
      2330  123.8800  0.903162    320.29    327.87      5.71
      2331  123.9300  0.902952    332.89    330.07      5.80
      2332  123.9800  0.902742    332.98    333.36      5.80
      2333  124.0300  0.902533    333.23    338.16      5.78
      2334  124.0800  0.902324    339.39    344.74      5.85
      2335  124.1300  0.902115    342.14    352.73      5.91
      2336  124.1800  0.901906    364.89    360.16      6.08
      2337  124.2300  0.901698    357.06    363.36      6.07
      2338  124.2800  0.901490    349.78    360.54      5.97
      2339  124.3300  0.901282    353.45    353.77      6.00
      2340  124.3800  0.901075    351.41    346.14      5.94
      2341  124.4300  0.900867    346.29    339.49      5.89
      2342  124.4800  0.900660    341.36    334.47      5.86
      2343  124.5300  0.900454    334.63    330.96      5.81
      2344  124.5800  0.900247    333.79    328.61      5.81
      2345  124.6300  0.900041    322.81    327.05      5.75
      2346  124.6800  0.899835    325.26    325.99      5.77
      2347  124.7300  0.899629    323.09    325.24      5.74
      2348  124.7800  0.899424    322.44    324.70      5.70
      2349  124.8300  0.899219    316.24    324.30      5.66
      2350  124.8800  0.899014    323.82    323.98      5.72
      2351  124.9300  0.898809    326.62    323.74      5.75
      2352  124.9800  0.898605    314.64    323.55      5.70
      2353  125.0300  0.898401    318.60    323.40      5.73
      2354  125.0800  0.898197    325.85    323.28      5.74
      2355  125.1300  0.897994    326.07    323.19      5.72
      2356  125.1800  0.897790    330.33    323.12      5.78
      2357  125.2300  0.897587    324.21    323.11      5.74
      2358  125.2800  0.897385    324.57    323.10      5.74
      2359  125.3300  0.897182    325.71    323.11      5.77
      2360  125.3800  0.896980    332.18    323.13      5.82
      2361  125.4300  0.896778    324.04    323.15      5.70
      2362  125.4800  0.896576    321.32    323.19      5.73
      2363  125.5300  0.896375    319.93    323.23      5.75
      2364  125.5800  0.896174    333.85    323.27      5.82
      2365  125.6300  0.895973    326.42    323.32      5.79
      2366  125.6800  0.895772    337.11    323.38      5.82
      2367  125.7300  0.895572    336.21    323.43      5.83
      2368  125.7800  0.895372    331.34    323.49      5.83
      2369  125.8300  0.895172    334.44    323.56      5.83
      2370  125.8800  0.894972    333.69    323.66      5.80
      2371  125.9300  0.894773    336.21    323.73      5.84
      2372  125.9800  0.894574    324.71    323.81      5.73
      2373  126.0300  0.894375    326.88    323.89      5.74
      2374  126.0800  0.894176    327.12    323.97      5.79
      2375  126.1300  0.893978    330.90    324.06      5.79
      2376  126.1800  0.893780    330.52    324.14      5.83
      2377  126.2300  0.893582    324.11    324.24      5.90
      2378  126.2800  0.893384    333.78    324.34      5.79
      2379  126.3300  0.893187    326.12    324.44      5.72
      2380  126.3800  0.892990    316.02    324.56      5.71
      2381  126.4300  0.892793    308.91    324.68      5.59
      2382  126.4800  0.892597    315.94    324.81      5.65
      2383  126.5300  0.892401    323.44    324.96      5.75
      2384  126.5800  0.892204    319.51    325.12      5.69
      2385  126.6300  0.892009    333.37    325.32      5.79
      2386  126.6800  0.891813    331.52    325.55      5.77
      2387  126.7300  0.891618    319.02    325.83      5.71
      2388  126.7800  0.891423    317.31    326.22      5.70
      2389  126.8300  0.891228    320.07    326.74      5.70
      2390  126.8800  0.891034    318.88    327.47      5.71
      2391  126.9300  0.890840    335.10    328.49      5.83
      2392  126.9800  0.890646    326.84    329.83      5.77
      2393  127.0300  0.890452    324.02    331.44      5.72
      2394  127.0800  0.890258    323.74    333.04      5.73
      2395  127.1300  0.890065    327.76    334.00      5.76
      2396  127.1800  0.889872    327.86    333.87      5.73
      2397  127.2300  0.889680    331.36    332.86      5.83
      2398  127.2800  0.889487    337.50    331.49      5.88
      2399  127.3300  0.889295    334.92    330.15      5.83
      2400  127.3800  0.889103    334.25    329.08      5.82
      2401  127.4300  0.888911    324.37    328.31      5.71
      2402  127.4800  0.888720    325.83    327.80      5.72
      2403  127.5300  0.888529    333.15    327.43      5.79
      2404  127.5800  0.888338    333.93    327.26      5.79
      2405  127.6300  0.888147    327.08    327.19      5.79
      2406  127.6800  0.887957    328.40    327.17      5.76
      2407  127.7300  0.887766    336.37    327.18      5.83
      2408  127.7800  0.887576    324.24    327.18      5.71
      2409  127.8300  0.887387    326.49    327.19      5.79
      2410  127.8800  0.887197    320.99    327.19      5.68
      2411  127.9300  0.887008    331.72    327.20      5.78
      2412  127.9800  0.886819    328.04    327.23      5.84
      2413  128.0300  0.886631    318.51    327.26      5.68
      2414  128.0800  0.886442    324.31    327.32      5.74
      2415  128.1300  0.886254    326.74    327.38      5.73
      2416  128.1800  0.886066    334.67    327.45      5.80
      2417  128.2300  0.885878    329.25    327.53      5.75
      2418  128.2800  0.885691    327.70    327.61      5.73
      2419  128.3300  0.885504    324.98    327.70      5.77
      2420  128.3800  0.885317    330.33    327.80      5.85
      2421  128.4300  0.885130    326.91    327.89      5.74
      2422  128.4800  0.884944    327.17    327.99      5.78
      2423  128.5300  0.884757    320.29    328.10      5.69
      2424  128.5800  0.884571    326.65    328.21      5.75
      2425  128.6300  0.884386    328.23    328.32      5.78
      2426  128.6800  0.884200    324.35    328.43      5.75
      2427  128.7300  0.884015    322.91    328.56      5.69
      2428  128.7800  0.883830    339.27    328.68      5.88
      2429  128.8300  0.883645    335.75    328.81      5.86
      2430  128.8800  0.883461    336.12    328.95      5.81
      2431  128.9300  0.883277    329.91    329.10      5.76
      2432  128.9800  0.883093    327.18    329.24      5.77
      2433  129.0300  0.882909    326.18    329.39      5.73
      2434  129.0800  0.882725    330.07    329.55      5.77
      2435  129.1300  0.882542    325.82    329.72      5.73
      2436  129.1800  0.882359    331.18    329.90      5.79
      2437  129.2300  0.882176    334.56    330.11      5.86
      2438  129.2800  0.881994    336.35    330.34      5.81
      2439  129.3300  0.881811    337.39    330.60      5.83
      2440  129.3800  0.881629    337.55    330.88      5.84
      2441  129.4300  0.881448    323.35    331.21      5.71
      2442  129.4800  0.881266    334.91    331.59      5.81
      2443  129.5300  0.881085    334.87    332.03      5.82
      2444  129.5800  0.880904    339.85    332.55      5.85
      2445  129.6300  0.880723    338.18    333.17      5.90
      2446  129.6800  0.880542    340.38    333.95      5.90
      2447  129.7300  0.880362    328.76    334.93      5.76
      2448  129.7800  0.880182    339.64    336.23      5.85
      2449  129.8300  0.880002    347.83    338.00      5.93
      2450  129.8800  0.879822    346.36    340.50      5.98
      2451  129.9300  0.879643    346.22    344.06      5.94
      2452  129.9800  0.879464    362.23    349.11      6.10
      2453  130.0300  0.879285    371.42    356.04      6.16
      2454  130.0800  0.879106    376.04    364.99      6.14
      2455  130.1300  0.878928    385.69    375.34      6.22
      2456  130.1800  0.878750    389.04    384.77      6.26
      2457  130.2300  0.878572    386.63    389.56      6.28
      2458  130.2800  0.878394    386.35    387.55      6.24
      2459  130.3300  0.878217    388.55    380.39      6.25
      2460  130.3800  0.878039    384.91    371.12      6.23
      2461  130.4300  0.877862    369.82    362.01      6.09
      2462  130.4800  0.877686    359.95    354.39      6.05
      2463  130.5300  0.877509    353.97    348.62      5.98
      2464  130.5800  0.877333    351.61    344.56      5.94
      2465  130.6300  0.877157    347.33    341.90      5.91
      2466  130.6800  0.876981    344.61    340.27      5.89
      2467  130.7300  0.876805    331.96    339.43      5.83
      2468  130.7800  0.876630    333.74    339.13      5.82
      2469  130.8300  0.876455    337.28    339.18      5.83
      2470  130.8800  0.876280    337.89    339.27      5.87
      2471  130.9300  0.876106    332.18    339.04      5.81
      2472  130.9800  0.875931    330.77    338.40      5.82
      2473  131.0300  0.875757    338.19    337.51      5.84
      2474  131.0800  0.875583    330.44    336.57      5.81
      2475  131.1300  0.875409    334.43    335.72      5.83
      2476  131.1800  0.875236    325.80    335.05      5.75
      2477  131.2300  0.875063    329.24    334.54      5.76
      2478  131.2800  0.874890    333.42    334.19      5.78
      2479  131.3300  0.874717    331.09    333.95      5.77
      2480  131.3800  0.874545    333.30    333.81      5.79
      2481  131.4300  0.874372    334.74    333.74      5.79
      2482  131.4800  0.874200    328.32    333.71      5.76
      2483  131.5300  0.874029    331.40    333.74      5.83
      2484  131.5800  0.873857    334.33    333.80      5.82
      2485  131.6300  0.873686    320.96    333.91      5.74
      2486  131.6800  0.873515    327.57    334.07      5.77
      2487  131.7300  0.873344    334.68    334.30      5.82
      2488  131.7800  0.873173    326.84    334.62      5.73
      2489  131.8300  0.873003    328.26    335.08      5.74
      2490  131.8800  0.872833    337.11    335.73      5.82
      2491  131.9300  0.872663    346.75    336.62      5.90
      2492  131.9800  0.872493    337.84    337.78      5.86
      2493  132.0300  0.872323    339.21    339.19      5.85
      2494  132.0800  0.872154    336.79    340.69      5.83
      2495  132.1300  0.871985    344.61    341.88      5.89
      2496  132.1800  0.871817    345.36    342.35      5.89
      2497  132.2300  0.871648    348.29    342.01      5.92
      2498  132.2800  0.871480    345.68    341.11      5.91
      2499  132.3300  0.871312    344.06    339.98      5.91
      2500  132.3800  0.871144    336.65    338.89      5.89
      2501  132.4300  0.870976    347.55    338.00      5.95
      2502  132.4800  0.870809    350.54    337.37      5.95
      2503  132.5300  0.870642    340.54    336.99      5.85
      2504  132.5800  0.870475    328.90    336.86      5.77
      2505  132.6300  0.870308    333.81    336.86      5.84
      2506  132.6800  0.870142    340.86    336.99      5.87
      2507  132.7300  0.869975    332.67    337.24      5.80
      2508  132.7800  0.869809    337.42    337.61      5.82
      2509  132.8300  0.869644    337.84    338.11      5.84
      2510  132.8800  0.869478    342.11    338.75      5.92
      2511  132.9300  0.869313    342.56    339.59      5.95
      2512  132.9800  0.869148    334.95    340.69      5.85
      2513  133.0300  0.868983    341.38    342.17      5.92
      2514  133.0800  0.868818    334.64    344.21      5.81
      2515  133.1300  0.868654    334.27    347.08      5.80
      2516  133.1800  0.868489    349.93    351.12      5.93
      2517  133.2300  0.868326    353.67    356.73      6.04
      2518  133.2800  0.868162    368.31    364.26      6.12
      2519  133.3300  0.867998    376.48    373.80      6.15
      2520  133.3800  0.867835    384.12    384.58      6.22
      2521  133.4300  0.867672    386.62    394.24      6.25
      2522  133.4800  0.867509    393.90    399.17      6.30
      2523  133.5300  0.867347    401.36    397.34      6.36
      2524  133.5800  0.867184    404.93    390.29      6.42
      2525  133.6300  0.867022    374.08    380.93      6.15
      2526  133.6800  0.866860    373.14    371.38      6.13
      2527  133.7300  0.866698    366.91    362.99      6.09
      2528  133.7800  0.866537    365.28    356.38      6.07
      2529  133.8300  0.866376    358.26    351.54      6.01
      2530  133.8800  0.866215    346.69    348.19      5.90
      2531  133.9300  0.866054    343.42    345.99      5.89
      2532  133.9800  0.865893    347.51    344.68      5.94
      2533  134.0300  0.865733    352.41    344.02      5.95
      2534  134.0800  0.865573    344.85    343.82      5.89
      2535  134.1300  0.865413    337.86    343.82      5.82
      2536  134.1800  0.865253    353.00    343.69      5.99
      2537  134.2300  0.865094    342.36    343.20      5.88
      2538  134.2800  0.864935    346.74    342.36      5.93
      2539  134.3300  0.864776    338.10    341.39      5.87
      2540  134.3800  0.864617    338.90    340.42      5.84
      2541  134.4300  0.864458    340.76    339.56      5.85
      2542  134.4800  0.864300    346.05    338.85      5.91
      2543  134.5300  0.864142    334.39    338.31      5.93
      2544  134.5800  0.863984    337.28    337.90      5.83
      2545  134.6300  0.863826    338.20    337.60      5.86
      2546  134.6800  0.863669    333.80    337.37      5.81
      2547  134.7300  0.863512    339.25    337.20      5.85
      2548  134.7800  0.863355    348.68    337.08      5.93
      2549  134.8300  0.863198    337.83    336.98      5.85
      2550  134.8800  0.863041    333.04    336.91      5.84
      2551  134.9300  0.862885    326.43    336.86      5.77
      2552  134.9800  0.862729    339.75    336.82      5.88
      2553  135.0300  0.862573    336.33    336.79      5.83
      2554  135.0800  0.862417    329.63    336.78      5.77
      2555  135.1300  0.862262    338.05    336.77      5.86
      2556  135.1800  0.862107    325.63    336.77      5.82
      2557  135.2300  0.861952    334.23    336.77      5.91
      2558  135.2800  0.861797    324.60    336.78      5.78
      2559  135.3300  0.861642    324.92    336.80      5.73
      2560  135.3800  0.861488    339.15    336.82      5.88
      2561  135.4300  0.861334    341.87    336.84      5.92
      2562  135.4800  0.861180    327.99    336.86      5.77
      2563  135.5300  0.861026    338.49    336.89      5.85
      2564  135.5800  0.860873    348.84    336.95      5.94
      2565  135.6300  0.860720    340.92    337.05      5.87
      2566  135.6800  0.860566    332.20    337.15      5.82
      2567  135.7300  0.860414    325.77    337.26      5.76
      2568  135.7800  0.860261    344.48    337.36      5.91
      2569  135.8300  0.860109    343.09    337.47      5.87
      2570  135.8800  0.859957    338.15    337.63      5.83
      2571  135.9300  0.859805    340.56    337.74      5.85
      2572  135.9800  0.859653    334.30    337.85      5.84
      2573  136.0300  0.859501    341.22    337.96      5.91
      2574  136.0800  0.859350    337.23    338.08      5.90
      2575  136.1300  0.859199    334.39    338.19      5.95
      2576  136.1800  0.859048    336.61    338.31      5.87
      2577  136.2300  0.858897    340.26    338.43      5.86
      2578  136.2800  0.858747    340.83    338.54      5.85
      2579  136.3300  0.858597    339.40    338.66      5.92
      2580  136.3800  0.858447    338.73    338.78      5.83
      2581  136.4300  0.858297    352.22    338.90      5.95
      2582  136.4800  0.858147    345.54    339.02      5.90
      2583  136.5300  0.857998    335.31    339.14      5.80
      2584  136.5800  0.857849    341.24    339.26      5.87
      2585  136.6300  0.857700    346.61    339.39      5.90
      2586  136.6800  0.857551    339.01    339.51      5.87
      2587  136.7300  0.857403    334.98    339.63      5.81
      2588  136.7800  0.857255    345.77    339.76      5.94
      2589  136.8300  0.857106    337.97    339.88      5.90
      2590  136.8800  0.856959    339.48    340.01      5.86
      2591  136.9300  0.856811    345.00    340.13      5.95
      2592  136.9800  0.856664    340.44    340.26      6.02
      2593  137.0300  0.856516    338.22    340.39      5.86
      2594  137.0800  0.856369    342.33    340.52      5.87
      2595  137.1300  0.856223    344.47    340.64      5.92
      2596  137.1800  0.856076    335.35    340.77      5.85
      2597  137.2300  0.855930    341.15    340.90      5.86
      2598  137.2800  0.855784    335.45    341.03      5.85
      2599  137.3300  0.855638    345.71    341.16      5.90
      2600  137.3800  0.855492    346.96    341.29      5.90
      2601  137.4300  0.855346    346.32    341.42      5.94
      2602  137.4800  0.855201    333.89    341.56      5.88
      2603  137.5300  0.855056    330.17    341.69      5.81
      2604  137.5800  0.854911    335.02    341.83      5.81
      2605  137.6300  0.854766    344.09    341.96      5.92
      2606  137.6800  0.854622    344.70    342.10      5.95
      2607  137.7300  0.854478    343.09    342.24      5.89
      2608  137.7800  0.854334    345.05    342.38      5.89
      2609  137.8300  0.854190    346.83    342.51      5.93
      2610  137.8800  0.854046    343.42    342.65      5.88
      2611  137.9300  0.853903    344.97    342.79      5.95
      2612  137.9800  0.853760    349.46    342.94      5.97
      2613  138.0300  0.853617    338.42    343.08      5.93
      2614  138.0800  0.853474    341.38    343.22      5.91
      2615  138.1300  0.853332    343.45    343.37      5.88
      2616  138.1800  0.853189    342.86    343.51      5.90
      2617  138.2300  0.853047    339.50    343.66      5.89
      2618  138.2800  0.852905    349.17    343.82      5.97
      2619  138.3300  0.852763    336.32    343.97      5.95
      2620  138.3800  0.852622    338.58    344.12      5.96
      2621  138.4300  0.852481    342.37    344.28      5.88
      2622  138.4800  0.852340    347.33    344.44      5.94
      2623  138.5300  0.852199    344.54    344.62      5.89
      2624  138.5800  0.852058    352.18    344.79      5.95
      2625  138.6300  0.851918    347.18    344.95      5.91
      2626  138.6800  0.851777    346.52    345.12      5.93
      2627  138.7300  0.851637    353.68    345.30      5.97
      2628  138.7800  0.851497    350.39    345.47      6.00
      2629  138.8300  0.851358    357.01    345.65      6.00
      2630  138.8800  0.851218    349.18    345.84      5.96
      2631  138.9300  0.851079    348.59    346.03      5.95
      2632  138.9800  0.850940    346.32    346.23      5.91
      2633  139.0300  0.850801    345.40    346.43      5.91
      2634  139.0800  0.850663    343.13    346.65      5.96
      2635  139.1300  0.850524    339.86    346.85      5.87
      2636  139.1800  0.850386    350.07    347.03      5.96
      2637  139.2300  0.850248    346.09    347.22      5.91
      2638  139.2800  0.850111    349.92    347.43      5.93
      2639  139.3300  0.849973    349.99    347.65      5.93
      2640  139.3800  0.849836    348.52    347.89      5.93
      2641  139.4300  0.849699    351.57    348.15      5.94
      2642  139.4800  0.849562    351.07    348.43      5.99
      2643  139.5300  0.849425    345.20    348.75      5.91
      2644  139.5800  0.849288    347.81    349.10      5.96
      2645  139.6300  0.849152    357.76    349.49      6.02
      2646  139.6800  0.849016    343.17    349.94      5.89
      2647  139.7300  0.848880    354.80    350.44      6.03
      2648  139.7800  0.848744    354.30    351.03      5.96
      2649  139.8300  0.848609    345.42    351.71      5.90
      2650  139.8800  0.848473    353.29    352.52      5.96
      2651  139.9300  0.848338    347.41    353.49      5.93
      2652  139.9800  0.848204    354.20    354.67      5.99
      2653  140.0300  0.848069    349.50    356.15      5.94
      2654  140.0800  0.847934    349.91    358.02      5.94
      2655  140.1300  0.847800    358.28    360.46      6.01
      2656  140.1800  0.847666    350.88    363.68      5.95
      2657  140.2300  0.847532    363.55    368.02      6.05
      2658  140.2800  0.847399    371.71    373.85      6.12
      2659  140.3300  0.847265    389.12    381.63      6.30
      2660  140.3800  0.847132    382.23    391.64      6.25
      2661  140.4300  0.846999    391.90    403.61      6.30
      2662  140.4800  0.846866    396.34    415.81      6.32
      2663  140.5300  0.846733    416.22    424.67      6.46
      2664  140.5800  0.846601    436.35    426.64      6.62
      2665  140.6300  0.846469    420.32    421.58      6.50
      2666  140.6800  0.846337    419.55    412.55      6.51
      2667  140.7300  0.846205    411.24    402.36      6.45
      2668  140.7800  0.846073    391.33    392.35      6.27
      2669  140.8300  0.845942    392.81    383.39      6.28
      2670  140.8800  0.845810    384.11    376.08      6.22
      2671  140.9300  0.845680    378.63    370.48      6.19
      2672  140.9800  0.845549    362.19    366.38      6.06
      2673  141.0300  0.845418    355.17    363.45      6.07
      2674  141.0800  0.845288    347.01    361.43      5.90
      2675  141.1300  0.845157    350.82    360.07      5.98
      2676  141.1800  0.845027    356.04    359.11      6.03
      2677  141.2300  0.844898    356.96    358.40      5.99
      2678  141.2800  0.844768    364.76    357.67      6.06
      2679  141.3300  0.844639    353.69    356.84      6.00
      2680  141.3800  0.844509    348.45    355.99      5.96
      2681  141.4300  0.844380    346.49    355.20      5.99
      2682  141.4800  0.844252    354.96    354.48      6.02
      2683  141.5300  0.844123    348.28    353.87      6.02
      2684  141.5800  0.843994    348.25    353.36      5.97
      2685  141.6300  0.843866    348.59    352.96      5.95
      2686  141.6800  0.843738    355.38    352.65      6.01
      2687  141.7300  0.843610    351.72    352.42      5.97
      2688  141.7800  0.843483    349.81    352.24      5.94
      2689  141.8300  0.843355    347.59    352.10      5.93
      2690  141.8800  0.843228    348.58    352.00      5.93
      2691  141.9300  0.843101    351.46    351.93      5.97
      2692  141.9800  0.842974    349.43    351.88      5.96
      2693  142.0300  0.842848    353.52    351.85      6.01
      2694  142.0800  0.842721    349.27    351.84      5.96
      2695  142.1300  0.842595    357.35    351.85      6.02
      2696  142.1800  0.842469    362.57    351.86      6.07
      2697  142.2300  0.842343    345.43    351.89      5.94
      2698  142.2800  0.842218    363.25    351.93      6.12
      2699  142.3300  0.842092    353.29    351.98      6.09
      2700  142.3800  0.841967    346.29    352.05      5.91
      2701  142.4300  0.841842    345.88    352.14      5.93
      2702  142.4800  0.841717    356.71    352.24      5.99
      2703  142.5300  0.841592    349.72    352.35      5.99
      2704  142.5800  0.841468    349.41    352.46      5.99
      2705  142.6300  0.841344    355.63    352.59      6.00
      2706  142.6800  0.841220    360.44    352.72      6.08
      2707  142.7300  0.841096    355.95    352.87      6.01
      2708  142.7800  0.840972    358.31    353.02      6.00
      2709  142.8300  0.840849    353.11    353.18      6.01
      2710  142.8800  0.840725    353.24    353.35      5.99
      2711  142.9300  0.840602    352.49    353.54      6.00
      2712  142.9800  0.840479    354.43    353.73      6.00
      2713  143.0300  0.840357    347.27    353.94      5.94
      2714  143.0800  0.840234    352.23    354.16      6.02
      2715  143.1300  0.840112    349.74    354.40      5.97
      2716  143.1800  0.839990    346.24    354.66      5.95
      2717  143.2300  0.839868    351.24    354.94      5.97
      2718  143.2800  0.839746    351.10    355.24      5.98
      2719  143.3300  0.839625    355.05    355.57      6.01
      2720  143.3800  0.839503    359.03    355.92      6.02
      2721  143.4300  0.839382    349.60    356.32      5.94
      2722  143.4800  0.839261    346.26    356.75      5.92
      2723  143.5300  0.839141    346.40    357.24      5.95
      2724  143.5800  0.839020    351.66    357.78      6.08
      2725  143.6300  0.838900    339.82    358.39      5.91
      2726  143.6800  0.838780    357.97    359.09      6.02
      2727  143.7300  0.838660    346.66    359.89      5.92
      2728  143.7800  0.838540    362.51    360.82      6.04
      2729  143.8300  0.838420    352.88    361.91      5.96
      2730  143.8800  0.838301    347.46    363.21      5.96
      2731  143.9300  0.838182    353.87    364.78      6.01
      2732  143.9800  0.838063    366.51    366.71      6.16
      2733  144.0300  0.837944    355.51    369.14      6.02
      2734  144.0800  0.837826    363.30    372.22      6.05
      2735  144.1300  0.837707    365.15    376.21      6.07
      2736  144.1800  0.837589    371.68    381.42      6.12
      2737  144.2300  0.837471    384.78    388.21      6.22
      2738  144.2800  0.837353    390.02    396.94      6.27
      2739  144.3300  0.837235    404.71    407.79      6.38
      2740  144.3800  0.837118    418.28    420.24      6.48
      2741  144.4300  0.837001    430.16    432.53      6.57
      2742  144.4800  0.836884    436.32    441.64      6.62
      2743  144.5300  0.836767    445.64    444.98      6.71
      2744  144.5800  0.836650    446.34    442.79      6.71
      2745  144.6300  0.836534    451.50    437.78      6.73
      2746  144.6800  0.836417    443.53    432.49      6.70
      2747  144.7300  0.836301    431.83    428.08      6.64
      2748  144.7800  0.836185    433.32    425.16      6.60
      2749  144.8300  0.836070    431.19    424.27      6.60
      2750  144.8800  0.835954    422.98    425.63      6.55
      2751  144.9300  0.835839    426.89    429.04      6.60
      2752  144.9800  0.835724    425.55    434.05      6.57
      2753  145.0300  0.835609    435.84    440.05      6.61
      2754  145.0800  0.835494    446.76    446.40      6.70
      2755  145.1300  0.835379    442.61    452.39      6.70
      2756  145.1800  0.835265    453.28    457.30      6.74
      2757  145.2300  0.835151    454.41    460.46      6.76
      2758  145.2800  0.835037    454.30    461.34      6.75
      2759  145.3300  0.834923    462.77    459.64      6.82
      2760  145.3800  0.834809    469.62    455.42      6.87
      2761  145.4300  0.834696    461.91    449.08      6.81
      2762  145.4800  0.834583    451.71    441.23      6.73
      2763  145.5300  0.834470    436.76    432.48      6.62
      2764  145.5800  0.834357    415.25    423.36      6.46
      2765  145.6300  0.834244    412.31    414.32      6.46
      2766  145.6800  0.834132    408.14    405.73      6.41
      2767  145.7300  0.834019    395.81    397.87      6.36
      2768  145.7800  0.833907    386.41    390.89      6.30
      2769  145.8300  0.833795    374.30    384.86      6.14
      2770  145.8800  0.833684    377.76    379.79      6.17
      2771  145.9300  0.833572    385.35    375.60      6.23
      2772  145.9800  0.833461    385.11    372.23      6.25
      2773  146.0300  0.833350    378.46    369.56      6.22
      2774  146.0800  0.833239    371.55    367.48      6.24
      2775  146.1300  0.833128    369.49    365.88      6.14
      2776  146.1800  0.833017    363.79    364.67      6.04
      2777  146.2300  0.832907    361.14    363.75      6.02
      2778  146.2800  0.832797    365.95    363.06      6.07
      2779  146.3300  0.832687    361.77    362.54      6.06
      2780  146.3800  0.832577    372.46    362.15      6.17
      2781  146.4300  0.832467    369.32    361.86      6.10
      2782  146.4800  0.832358    365.45    361.63      6.08
      2783  146.5300  0.832248    357.11    361.46      6.00
      2784  146.5800  0.832139    363.74    361.33      6.13
      2785  146.6300  0.832030    356.36    361.23      6.01
      2786  146.6800  0.831922    351.84    361.16      5.96
      2787  146.7300  0.831813    354.14    361.11      6.02
      2788  146.7800  0.831705    360.46    361.09      6.10
      2789  146.8300  0.831597    362.37    361.08      6.09
      2790  146.8800  0.831489    365.22    361.08      6.09
      2791  146.9300  0.831381    358.23    361.10      6.13
      2792  146.9800  0.831273    359.16    361.14      6.05
      2793  147.0300  0.831166    364.69    361.19      6.12
      2794  147.0800  0.831059    369.12    361.31      6.13
      2795  147.1300  0.830952    363.10    361.45      6.20
      2796  147.1800  0.830845    355.95    361.60      6.06
      2797  147.2300  0.830738    353.65    361.76      6.03
      2798  147.2800  0.830632    375.23    361.93      6.17
      2799  147.3300  0.830525    372.07    362.13      6.11
      2800  147.3800  0.830419    356.82    362.33      6.05
      2801  147.4300  0.830313    368.03    362.56      6.08
      2802  147.4800  0.830207    359.63    362.80      6.08
      2803  147.5300  0.830102    362.84    363.06      6.10
      2804  147.5800  0.829997    367.36    363.34      6.10
      2805  147.6300  0.829891    367.33    363.65      6.07
      2806  147.6800  0.829786    360.17    363.99      6.02
      2807  147.7300  0.829682    362.78    364.35      6.04
      2808  147.7800  0.829577    367.54    364.76      6.08
      2809  147.8300  0.829472    377.83    365.20      6.16
      2810  147.8800  0.829368    374.24    365.70      6.18
      2811  147.9300  0.829264    370.06    366.25      6.13
      2812  147.9800  0.829160    374.88    366.88      6.16
      2813  148.0300  0.829056    362.58    367.60      6.08
      2814  148.0800  0.828953    363.16    368.43      6.11
      2815  148.1300  0.828850    366.96    369.41      6.19
      2816  148.1800  0.828746    367.35    370.59      6.14
      2817  148.2300  0.828643    361.43    372.01      6.11
      2818  148.2800  0.828541    360.85    373.77      6.13
      2819  148.3300  0.828438    372.58    375.95      6.26
      2820  148.3800  0.828336    371.36    378.67      6.26
      2821  148.4300  0.828233    380.98    382.07      6.37
      2822  148.4800  0.828131    379.76    386.27      6.38
      2823  148.5300  0.828029    376.25    391.40      6.45
      2824  148.5800  0.827928    388.71    397.52      6.57
      2825  148.6300  0.827826    399.38    404.60      6.68
      2826  148.6800  0.827725    406.89    412.33      6.74
      2827  148.7300  0.827624    417.05    420.22      6.82
      2828  148.7800  0.827523    415.88    427.23      6.81
      2829  148.8300  0.827422    436.43    432.12      6.98
      2830  148.8800  0.827321    434.39    433.90      6.96
      2831  148.9300  0.827221    436.89    432.40      6.98
      2832  148.9800  0.827121    431.23    428.29      6.93
      2833  149.0300  0.827021    434.90    422.60      6.96
      2834  149.0800  0.826921    430.10    416.16      6.93
      2835  149.1300  0.826821    427.93    409.51      6.94
      2836  149.1800  0.826721    423.24    403.05      6.87
      2837  149.2300  0.826622    414.50    397.10      6.81
      2838  149.2800  0.826523    397.38    391.88      6.71
      2839  149.3300  0.826424    385.82    387.47      6.65
      2840  149.3800  0.826325    398.17    383.86      6.74
      2841  149.4300  0.826227    392.59    380.96      6.75
      2842  149.4800  0.826128    378.57    378.66      6.64
      2843  149.5300  0.826030    376.62    376.85      6.62
      2844  149.5800  0.825932    375.88    375.43      6.66
      2845  149.6300  0.825834    378.73    374.33      6.69
      2846  149.6800  0.825736    373.69    373.46      6.68
      2847  149.7300  0.825639    371.38    372.77      6.67
      2848  149.7800  0.825541    369.71    372.23      6.72
      2849  149.8300  0.825444    381.89    371.81      6.85
      2850  149.8800  0.825347    373.61    371.47      6.84
      2851  149.9300  0.825250    375.34    371.21      6.86
      2852  149.9800  0.825154    374.75    371.00      6.87
      2853  150.0300  0.825057    369.52    370.85      6.81
      2854  150.0800  0.824961    368.42    370.73      6.80
      2855  150.1300  0.824865    367.78    370.65      6.80
      2856  150.1800  0.824769    374.41    370.61      6.85
      2857  150.2300  0.824673    378.99    370.59      6.90
      2858  150.2800  0.824578    375.64    370.60      6.90
      2859  150.3300  0.824482    372.82    370.63      6.85
      2860  150.3800  0.824387    376.49    370.69      6.87
      2861  150.4300  0.824292    382.36    370.76      6.93
      2862  150.4800  0.824197    379.84    370.86      6.94
      2863  150.5300  0.824103    374.93    370.97      6.91
      2864  150.5800  0.824008    372.89    371.16      6.91
      2865  150.6300  0.823914    376.07    371.44      6.96
      2866  150.6800  0.823820    374.65    371.75      6.98
      2867  150.7300  0.823726    372.83    372.08      7.01
      2868  150.7800  0.823632    375.70    372.45      7.04
      2869  150.8300  0.823538    370.09    372.85      7.03
      2870  150.8800  0.823445    380.23    373.30      7.15
      2871  150.9300  0.823352    382.19    373.81      7.18
      2872  150.9800  0.823259    389.30    374.39      7.29
      2873  151.0300  0.823166    385.58    375.05      7.28
      2874  151.0800  0.823073    377.99    375.81      7.28
      2875  151.1300  0.822981    370.90    376.69      7.30
      2876  151.1800  0.822888    365.78    377.71      7.24
      2877  151.2300  0.822796    375.92    378.88      7.35
      2878  151.2800  0.822704    393.33    380.21      7.51
      2879  151.3300  0.822612    376.89    381.69      7.38
      2880  151.3800  0.822521    378.22    383.32      7.36
      2881  151.4300  0.822429    388.13    385.03      7.45
      2882  151.4800  0.822338    401.15    386.75      7.59
      2883  151.5300  0.822247    385.05    388.37      7.45
      2884  151.5800  0.822156    391.55    389.75      7.49
      2885  151.6300  0.822065    398.07    390.78      7.60
      2886  151.6800  0.821975    393.31    391.37      7.55
      2887  151.7300  0.821884    396.68    391.51      7.64
      2888  151.7800  0.821794    403.14    391.23      7.68
      2889  151.8300  0.821704    397.51    390.62      7.64
      2890  151.8800  0.821614    397.93    389.79      7.70
      2891  151.9300  0.821524    401.22    388.82      7.77
      2892  151.9800  0.821435    406.12    387.82      7.85
      2893  152.0300  0.821345    391.15    386.85      7.70
      2894  152.0800  0.821256    388.08    385.95      7.72
      2895  152.1300  0.821167    395.86    385.17      7.85
      2896  152.1800  0.821079    383.76    384.53      7.76
      2897  152.2300  0.820990    389.98    384.03      7.88
      2898  152.2800  0.820901    386.69    383.67      7.87
      2899  152.3300  0.820813    379.58    383.44      7.87
      2900  152.3800  0.820725    380.63    383.33      8.00
      2901  152.4300  0.820637    365.27    383.34      7.83
      2902  152.4800  0.820549    379.09    383.43      7.96
      2903  152.5300  0.820462    388.76    383.61      8.06
      2904  152.5800  0.820374    387.93    384.26      8.06
      2905  152.6300  0.820287    368.15    384.97      7.87
      2906  152.6800  0.820200    370.29    385.76      7.88
      2907  152.7300  0.820113    378.98    386.61      7.97
      2908  152.7800  0.820026    386.21    387.53      8.03
      2909  152.8300  0.819940    391.35    388.54      8.09
      2910  152.8800  0.819853    379.77    389.64      8.00
      2911  152.9300  0.819767    387.33    390.85      8.11
      2912  152.9800  0.819681    390.42    392.20      8.19
      2913  153.0300  0.819595    401.10    393.71      8.32
      2914  153.0800  0.819510    393.56    395.42      8.28
      2915  153.1300  0.819424    395.97    397.37      8.33
      2916  153.1800  0.819339    389.50    399.61      8.32
      2917  153.2300  0.819254    396.01    402.17      8.44
      2918  153.2800  0.819169    401.37    405.10      8.50
      2919  153.3300  0.819084    412.33    408.40      8.66
      2920  153.3800  0.818999    417.79    412.19      8.77
      2921  153.4300  0.818915    420.82    416.45      8.86
      2922  153.4800  0.818831    426.30    421.15      8.96
      2923  153.5300  0.818747    440.35    426.26      9.16
      2924  153.5800  0.818663    438.13    431.65      9.27
      2925  153.6300  0.818579    432.15    437.15      9.32
      2926  153.6800  0.818495    442.96    442.47      9.43
      2927  153.7300  0.818412    443.08    447.24      9.44
      2928  153.7800  0.818329    452.10    451.08      9.53
      2929  153.8300  0.818246    442.13    453.62      9.41
      2930  153.8800  0.818163    451.84    454.69      9.52
      2931  153.9300  0.818080    441.49    454.30      9.40
      2932  153.9800  0.817997    455.00    452.67      9.55
      2933  154.0300  0.817915    461.29    450.11      9.62
      2934  154.0800  0.817833    465.43    446.94      9.69
      2935  154.1300  0.817751    460.42    443.42      9.69
      2936  154.1800  0.817669    458.08    439.75      9.71
      2937  154.2300  0.817587    452.32    436.12      9.70
      2938  154.2800  0.817506    438.50    432.67      9.58
      2939  154.3300  0.817424    445.05    429.53      9.71
      2940  154.3800  0.817343    431.57    426.78      9.61
      2941  154.4300  0.817262    424.16    424.44      9.57
      2942  154.4800  0.817181    424.42    422.54      9.61
      2943  154.5300  0.817101    432.30    421.05      9.74
      2944  154.5800  0.817020    425.39    419.95      9.75
      2945  154.6300  0.816940    408.43    419.20      9.60
      2946  154.6800  0.816860    408.05    418.75      9.67
      2947  154.7300  0.816780    419.11    418.57      9.85
      2948  154.7800  0.816700    422.39    418.62      9.98
      2949  154.8300  0.816620    409.56    418.87      9.98
      2950  154.8800  0.816541    416.53    419.29     10.21
      2951  154.9300  0.816462    445.43    419.87     10.56
      2952  154.9800  0.816382    419.33    420.58     10.24
      2953  155.0300  0.816303    417.50    421.84     10.22
      2954  155.0800  0.816225    418.47    423.50     10.24
      2955  155.1300  0.816146    409.79    425.29     10.15
      2956  155.1800  0.816068    412.73    427.20     10.19
      2957  155.2300  0.815989    415.58    429.23     10.20
      2958  155.2800  0.815911    426.08    431.39     10.36
      2959  155.3300  0.815833    421.17    433.67     10.36
      2960  155.3800  0.815755    435.75    436.08     10.61
      2961  155.4300  0.815678    429.55    438.61     10.58
      2962  155.4800  0.815601    429.89    441.26     10.64
      2963  155.5300  0.815523    428.98    444.03     10.70
      2964  155.5800  0.815446    430.99    446.68     10.80
      2965  155.6300  0.815369    428.38    449.11     10.85
      2966  155.6800  0.815293    424.42    451.63     10.86
      2967  155.7300  0.815216    447.83    454.24     11.23
      2968  155.7800  0.815140    456.68    456.91     11.41
      2969  155.8300  0.815063    448.55    459.64     11.41
      2970  155.8800  0.814987    445.27    462.42     11.46
      2971  155.9300  0.814911    434.82    465.21     11.40
      2972  155.9800  0.814836    444.70    468.01     11.65
      2973  156.0300  0.814760    433.81    470.79     11.58
      2974  156.0800  0.814685    456.08    473.54     12.09
      2975  156.1300  0.814610    474.14    476.22     12.57
      2976  156.1800  0.814535    472.97    478.81     12.56
      2977  156.2300  0.814460    496.24    481.29     12.87
      2978  156.2800  0.814385    481.68    483.64     12.68
      2979  156.3300  0.814310    510.60    485.82     13.06
      2980  156.3800  0.814236    496.33    487.82     12.86
      2981  156.4300  0.814162    488.52    489.61     12.77
      2982  156.4800  0.814088    499.15    491.18     12.96
      2983  156.5300  0.814014    513.70    492.50     13.28
      2984  156.5800  0.813940    514.38    493.58     13.40
      2985  156.6300  0.813867    516.66    494.40     13.55
      2986  156.6800  0.813793    520.52    494.97     13.68
      2987  156.7300  0.813720    506.25    495.28     13.57
      2988  156.7800  0.813647    515.42    495.35     13.85
      2989  156.8300  0.813574    524.42    495.18     14.18
      2990  156.8800  0.813502    497.35    494.80     13.93
      2991  156.9300  0.813429    494.51    494.22     13.96
      2992  156.9800  0.813357    478.99    493.47     13.82
      2993  157.0300  0.813285    491.27    492.56     14.15
      2994  157.0800  0.813212    501.82    491.52     14.40
      2995  157.1300  0.813141    516.42    490.38     14.76
      2996  157.1800  0.813069    503.97    489.15     14.77
      2997  157.2300  0.812997    476.61    487.87     14.55
      2998  157.2800  0.812926    478.45    486.54     14.77
      2999  157.3300  0.812855    461.96    485.20     14.81
      3000  157.3800  0.812784    467.03    483.87     15.27
      3001  157.4300  0.812713    472.86    482.55     15.37
      3002  157.4800  0.812642    452.36    481.27     15.02
      3003  157.5300  0.812572    457.07    480.05     15.09
      3004  157.5800  0.812501    473.08    478.88     15.36
      3005  157.6300  0.812431    466.10    477.79     15.26
      3006  157.6800  0.812361    454.19    476.79     15.15
      3007  157.7300  0.812291    478.99    475.87     15.89
      3008  157.7800  0.812222    475.64    475.04     16.10
      3009  157.8300  0.812152    466.97    474.32     15.97

#==============================================================================

# STRUCTURE-FACTOR LIST

loop_
 _refln_index_h
 _refln_index_k
 _refln_index_l
 _refln_F_squared_calc
 _refln_F_squared_meas
 _refln_F_squared_sigma
 _refln_include_status
 _refln_d_spacing
   0   0   3       97.78       84.72        2.17 o  7.121181
   0   0   6      298.92      310.54        7.80 o  3.560590
   1   0   1      426.23      428.90        8.98 o  2.990245
   1  -1   2       47.19       46.41        1.56 o  2.906063
   1   0   4      584.12      578.43       12.06 o  2.628821
   1  -1   5       64.91       59.23        2.60 o  2.466149
   0   0   9      668.63      675.31       16.54 o  2.373727
   1   0   7        9.06       13.46        1.26 o  2.146655
   1  -1   8       22.58       38.47        5.37 o  2.000505
   0   0  12        0.16        0.08        0.04 <  1.780295
   1   0  10       21.02       23.77        1.53 o  1.744078
   2  -1   0       46.43       52.56        3.39 o  1.743583
   2  -1   3       29.64       34.63        2.55 o  1.693558
   1  -1  11      268.87      267.23        7.70 o  1.633507
   2  -1   6      293.39      297.60        6.88 o  1.565913
   2  -2   1      348.61      369.22        9.96 o  1.506229
   2   0   2       19.20       18.79        0.94 o  1.495122
   2  -2   4      346.76      348.65        9.75 o  1.453032
   1   0  13        0.06        0.06        0.00 o  1.443474
   0   0  15       10.78        8.48        1.30 o  1.424236
   2   0   5       25.05       20.19        2.98 o  1.423697
   2  -1   9      361.55      366.89        8.42 o  1.405229
   1  -1  14      313.96      328.61        9.85 o  1.361972
   2  -2   7       16.08       17.04        1.07 o  1.353396
   2   0   8        8.12       12.22        9.11 <  1.314411
   2  -1  12        6.50       10.66        5.72 <  1.245676
   2  -2  10       22.92       13.25        5.17 <  1.233074
   1   0  16      224.24      224.01        8.98 o  1.221187
   2   0  11      215.38      214.90        9.08 o  1.192080
   0   0  18        4.32        4.40        0.38 o  1.186863
   1  -1  17        4.77        6.18        5.00 <  1.160235
   3  -1   1      235.23      235.48        6.60 o  1.139817
   3  -2   2       15.75       14.37        0.81 o  1.134981
   3  -1   4      244.91      252.96        7.05 o  1.116235
   2  -2  13        1.98        1.89        0.09 o  1.111885
   2  -1  15       17.82       18.54        1.08 o  1.103020
   3  -2   5       16.85       17.55        1.02 o  1.102770
   2   0  14      192.74      162.21        8.77 o  1.073327
   3  -1   7       10.92        6.38        1.29 o  1.069115
   1   0  19      137.68      120.55        6.71 o  1.053731
   3  -2   8        7.11        7.43        0.59 o  1.049583
   0   0  21      148.33      176.10       28.08 o  1.017311
   1  -1  20       23.73       20.55        3.05 o  1.007039
   3  -1  10       13.32       11.59        1.71 o  1.006753
   3   0   0       11.32        9.85        1.45 o  1.006658
   2  -2  16      132.85      126.88        8.93 o  1.000253
   3  -3   3        9.76        9.96        2.24 o  0.996748
   3   0   3        9.76        9.96        2.24 o  0.996748
   3  -2  11      145.07      130.54        5.24 o  0.984068
   2  -1  18        0.09        0.09        0.01 o  0.981128
   3  -3   6      160.60      152.16        5.61 o  0.968688
   3   0   6      160.60      152.16        5.61 o  0.968688
   2   0  17        6.19        6.50        0.57 o  0.965924
   3  -1  13        1.41        0.88        1.61 <  0.937486
   3  -3   9      153.06      141.07        5.59 o  0.926764
   3   0   9      153.06      141.07        5.59 o  0.926764
   1   0  22        7.31        7.69        0.60 o  0.924454
   3  -2  14      135.90      122.47        5.38 o  0.914025
   2  -2  19      109.78       97.18        9.41 o  0.901832
   0   0  24       70.68       30.72       26.96 <  0.890148
   1  -1  23        0.61        0.81        0.59 <  0.887806
   2  -1  21       83.38       93.61        5.63 o  0.878684
   3  -3  12        6.64        6.91        1.12 o  0.876274
   3   0  12        6.64        6.91        1.12 o  0.876274
   2   0  20       18.34       19.98        6.13 o  0.872039
   4  -2   0        6.55        6.92        2.15 o  0.871791
   3  -1  16       92.77       91.48        5.26 o  0.867621
   4  -2   3        7.00        7.55        1.00 o  0.865331
   4  -2   6      112.23      104.43        5.18 o  0.846779
   3  -2  17        4.07        4.19        0.34 o  0.844931
   4  -3   1      116.88      114.22        3.80 o  0.836947
   4  -1   2        7.50        7.50        0.23 o  0.835027
   4  -3   4      112.63      112.27        5.47 o  0.827476
   1   0  25       25.83       29.28        4.80 o  0.822257
   3  -3  15        9.91       11.17        1.84 o  0.822050
   3   0  15        9.91       11.17        1.84 o  0.822050
   4  -1   5        5.41        6.06        1.00 o  0.821946
   4  -2   9      104.61      106.48        6.92 o  0.818345
   2  -2  22        2.86        2.54        0.21 o  0.816754

